<?xml version="1.0" encoding="UTF-8"?>

<!-- generated on 2026-04-21T10:54:53.766208+03:00 by Eclipse SUMO netconvert 1.26.0
<netconvertConfiguration xmlns:xsi="http://www.w3.org/2001/XMLSchema-instance" xsi:noNamespaceSchemaLocation="http://sumo.dlr.de/xsd/netconvertConfiguration.xsd">

    <input>
        <osm-files value="sumo_scenarios/wadi_saqra.osm.xml"/>
    </input>

    <output>
        <output-file value="sumo_scenarios/wadi_saqra.net.xml"/>
    </output>

    <projection>
        <proj.utm value="true"/>
    </projection>

    <processing>
        <geometry.remove value="true"/>
        <roundabouts.guess value="true"/>
    </processing>

    <tls_building>
        <tls.discard-simple value="true"/>
        <tls.join value="true"/>
        <tls.guess-signals value="true"/>
    </tls_building>

    <ramp_guessing>
        <ramps.guess value="true"/>
    </ramp_guessing>

    <junctions>
        <junctions.join value="true"/>
    </junctions>

</netconvertConfiguration>
-->

<net version="1.20" junctionCornerDetail="5" limitTurnSpeed="5.50" xmlns:xsi="http://www.w3.org/2001/XMLSchema-instance" xsi:noNamespaceSchemaLocation="http://sumo.dlr.de/xsd/net_file.xsd">

    <location netOffset="-772125.14,-3538072.33" convBoundary="0.00,0.00,4723.77,2430.38" origBoundary="35.879142,31.945383,35.928714,31.967377" projParameter="+proj=utm +zone=36 +ellps=WGS84 +datum=WGS84 +units=m +no_defs"/>

    <type id="highway.busway" priority="1" numLanes="1" speed="27.78" allow="bus" oneway="1"/>
    <type id="highway.footway" priority="1" numLanes="1" speed="2.78" allow="pedestrian" oneway="1" width="2.00"/>
    <type id="highway.living_street" priority="2" numLanes="1" speed="2.78" disallow="tram rail_urban rail rail_electric rail_fast ship container cable_car subway aircraft wheelchair scooter drone" oneway="0"/>
    <type id="highway.pedestrian" priority="1" numLanes="1" speed="2.78" allow="pedestrian" oneway="1" width="2.00"/>
    <type id="highway.primary" priority="12" numLanes="2" speed="27.78" disallow="tram rail_urban rail rail_electric rail_fast ship container cable_car subway aircraft wheelchair scooter drone" oneway="0"/>
    <type id="highway.primary_link" priority="7" numLanes="1" speed="22.22" disallow="tram rail_urban rail rail_electric rail_fast ship container cable_car subway aircraft wheelchair scooter drone" oneway="0"/>
    <type id="highway.residential" priority="3" numLanes="1" speed="13.89" disallow="tram rail_urban rail rail_electric rail_fast ship container cable_car subway aircraft wheelchair scooter drone" oneway="0"/>
    <type id="highway.secondary" priority="11" numLanes="1" speed="27.78" disallow="tram rail_urban rail rail_electric rail_fast ship container cable_car subway aircraft wheelchair scooter drone" oneway="0"/>
    <type id="highway.secondary_link" priority="6" numLanes="1" speed="22.22" disallow="tram rail_urban rail rail_electric rail_fast ship container cable_car subway aircraft wheelchair scooter drone" oneway="0"/>
    <type id="highway.service" priority="1" numLanes="1" speed="5.56" allow="pedestrian delivery bicycle" oneway="0"/>
    <type id="highway.steps" priority="1" numLanes="1" speed="1.39" allow="pedestrian" oneway="1" width="2.00"/>
    <type id="highway.tertiary" priority="10" numLanes="1" speed="22.22" disallow="tram rail_urban rail rail_electric rail_fast ship container cable_car subway aircraft wheelchair scooter drone" oneway="0"/>
    <type id="highway.tertiary_link" priority="5" numLanes="1" speed="22.22" disallow="tram rail_urban rail rail_electric rail_fast ship container cable_car subway aircraft wheelchair scooter drone" oneway="0"/>
    <type id="highway.trunk" priority="13" numLanes="2" speed="27.78" disallow="pedestrian bicycle tram rail_urban rail rail_electric rail_fast ship container cable_car subway aircraft wheelchair scooter drone" oneway="0"/>
    <type id="highway.trunk_link" priority="8" numLanes="1" speed="22.22" disallow="pedestrian bicycle tram rail_urban rail rail_electric rail_fast ship container cable_car subway aircraft wheelchair scooter drone" oneway="0"/>

    <edge id=":10092266299_0" function="internal">
        <lane id=":10092266299_0_0" index="0" disallow="pedestrian bicycle tram rail_urban rail rail_electric rail_fast ship container cable_car subway aircraft wheelchair scooter drone" speed="7.18" length="10.91" shape="1713.35,1448.22 1712.16,1446.03 1710.24,1444.76 1707.58,1444.41 1704.19,1444.97"/>
    </edge>
    <edge id=":10092266299_1" function="internal">
        <lane id=":10092266299_1_0" index="0" disallow="pedestrian bicycle tram rail_urban rail rail_electric rail_fast ship container cable_car subway aircraft wheelchair scooter drone" speed="27.78" length="14.67" shape="1713.35,1448.22 1711.58,1444.22 1709.70,1441.77 1707.84,1439.30 1706.19,1435.27"/>
        <lane id=":10092266299_1_1" index="1" disallow="pedestrian bicycle tram rail_urban rail rail_electric rail_fast ship container cable_car subway aircraft wheelchair scooter drone" speed="27.78" length="14.67" shape="1716.40,1447.27 1714.65,1443.30 1712.77,1440.86 1710.92,1438.42 1709.28,1434.41"/>
        <lane id=":10092266299_1_2" index="2" disallow="pedestrian bicycle tram rail_urban rail rail_electric rail_fast ship container cable_car subway aircraft wheelchair scooter drone" speed="27.78" length="14.67" shape="1719.46,1446.33 1717.71,1442.37 1715.83,1439.96 1713.99,1437.53 1712.36,1433.54"/>
        <lane id=":10092266299_1_3" index="3" disallow="pedestrian bicycle tram rail_urban rail rail_electric rail_fast ship container cable_car subway aircraft wheelchair scooter drone" speed="27.78" length="14.67" shape="1719.46,1446.33 1715.44,1432.68"/>
    </edge>
    <edge id=":10092266299_5" function="internal">
        <lane id=":10092266299_5_0" index="0" disallow="pedestrian bicycle tram rail_urban rail rail_electric rail_fast ship container cable_car subway aircraft wheelchair scooter drone" speed="5.44" length="6.02" shape="1703.35,1441.88 1703.82,1441.39 1703.93,1440.27 1703.69,1438.52 1703.11,1436.13"/>
        <lane id=":10092266299_5_1" index="1" disallow="pedestrian bicycle tram rail_urban rail rail_electric rail_fast ship container cable_car subway aircraft wheelchair scooter drone" speed="6.21" length="8.19" shape="1703.35,1441.88 1705.17,1441.02 1706.24,1439.63 1706.59,1437.72 1706.19,1435.27"/>
    </edge>
    <edge id=":10092266299_7" function="internal">
        <lane id=":10092266299_7_0" index="0" disallow="tram rail_urban rail rail_electric rail_fast ship container cable_car subway aircraft wheelchair scooter drone" speed="3.65" length="4.67" shape="1703.35,1441.88 1704.72,1442.34 1705.32,1443.00 1705.14,1443.88 1704.19,1444.97"/>
    </edge>
    <edge id=":10092319422_0" function="internal">
        <lane id=":10092319422_0_0" index="0" disallow="pedestrian bicycle tram rail_urban rail rail_electric rail_fast ship container cable_car subway aircraft wheelchair scooter drone" speed="27.78" length="2.95" shape="1814.24,1744.80 1813.28,1742.06"/>
        <lane id=":10092319422_0_1" index="1" disallow="pedestrian bicycle tram rail_urban rail rail_electric rail_fast ship container cable_car subway aircraft wheelchair scooter drone" speed="27.78" length="2.95" shape="1817.28,1743.78 1816.30,1741.00"/>
        <lane id=":10092319422_0_2" index="2" disallow="pedestrian bicycle tram rail_urban rail rail_electric rail_fast ship container cable_car subway aircraft wheelchair scooter drone" speed="27.78" length="2.95" shape="1820.31,1742.76 1819.32,1739.94"/>
    </edge>
    <edge id=":10092319422_3" function="internal">
        <lane id=":10092319422_3_0" index="0" disallow="pedestrian bicycle tram rail_urban rail rail_electric rail_fast ship container cable_car subway aircraft wheelchair scooter drone" speed="16.72" length="3.05" shape="1812.06,1745.54 1811.46,1744.86 1811.00,1744.42 1810.62,1743.93 1810.26,1743.12"/>
    </edge>
    <edge id=":10092319424_0" function="internal">
        <lane id=":10092319424_0_0" index="0" disallow="pedestrian bicycle tram rail_urban rail rail_electric rail_fast ship container cable_car subway aircraft wheelchair scooter drone" speed="27.78" length="6.13" shape="1829.68,1790.55 1827.67,1784.71"/>
        <lane id=":10092319424_0_1" index="1" disallow="pedestrian bicycle tram rail_urban rail rail_electric rail_fast ship container cable_car subway aircraft wheelchair scooter drone" speed="27.78" length="6.13" shape="1832.70,1789.49 1830.70,1783.69"/>
        <lane id=":10092319424_0_2" index="2" disallow="pedestrian bicycle tram rail_urban rail rail_electric rail_fast ship container cable_car subway aircraft wheelchair scooter drone" speed="27.78" length="6.13" shape="1835.72,1788.43 1833.74,1782.68"/>
    </edge>
    <edge id=":10092319424_3" function="internal">
        <lane id=":10092319424_3_0" index="0" allow="delivery" speed="5.60" length="6.14" shape="1824.50,1789.20 1826.24,1788.31 1827.35,1787.26 1827.83,1786.06 1827.67,1784.71"/>
    </edge>
    <edge id=":1043648495_0" function="internal">
        <lane id=":1043648495_0_0" index="0" disallow="tram rail_urban rail rail_electric rail_fast ship container cable_car subway aircraft wheelchair scooter drone" speed="27.78" length="8.19" shape="3376.43,1801.16 3380.85,1794.20"/>
        <lane id=":1043648495_0_1" index="1" disallow="tram rail_urban rail rail_electric rail_fast ship container cable_car subway aircraft wheelchair scooter drone" speed="27.78" length="8.19" shape="3379.18,1802.80 3383.54,1795.93"/>
    </edge>
    <edge id=":1043648495_2" function="internal">
        <lane id=":1043648495_2_0" index="0" allow="pedestrian delivery bicycle" speed="8.76" length="7.70" shape="3379.18,1802.80 3380.14,1801.66 3381.57,1800.71 3383.48,1799.94 3385.84,1799.35"/>
    </edge>
    <edge id=":1124936164_0" function="internal">
        <lane id=":1124936164_0_0" index="0" disallow="tram rail_urban rail rail_electric rail_fast ship container cable_car subway aircraft wheelchair scooter drone" speed="25.00" length="3.65" shape="2803.64,1169.96 2806.25,1167.20"/>
        <lane id=":1124936164_0_1" index="1" disallow="tram rail_urban rail rail_electric rail_fast ship container cable_car subway aircraft wheelchair scooter drone" speed="25.00" length="3.65" shape="2806.03,1172.09 2808.54,1169.44"/>
        <lane id=":1124936164_0_2" index="2" disallow="tram rail_urban rail rail_electric rail_fast ship container cable_car subway aircraft wheelchair scooter drone" speed="25.00" length="3.65" shape="2808.41,1174.23 2810.82,1171.68"/>
    </edge>
    <edge id=":1124936164_3" function="internal">
        <lane id=":1124936164_3_0" index="0" disallow="pedestrian tram rail_urban rail rail_electric rail_fast ship container cable_car subway aircraft wheelchair scooter drone" speed="20.84" length="3.85" shape="2810.80,1176.36 2811.33,1175.39 2811.34,1174.54 2811.35,1173.69 2811.85,1172.70"/>
        <lane id=":1124936164_3_1" index="1" disallow="pedestrian tram rail_urban rail rail_electric rail_fast ship container cable_car subway aircraft wheelchair scooter drone" speed="20.84" length="3.85" shape="2813.18,1178.50 2813.68,1177.56 2813.68,1176.73 2813.66,1175.90 2814.14,1174.95"/>
    </edge>
    <edge id=":1124936166_0" function="internal">
        <lane id=":1124936166_0_0" index="0" disallow="pedestrian tram rail_urban rail rail_electric rail_fast ship container cable_car subway aircraft wheelchair scooter drone" speed="20.84" length="0.10" shape="2944.03,881.32 2944.07,881.40"/>
        <lane id=":1124936166_0_1" index="1" disallow="pedestrian tram rail_urban rail rail_electric rail_fast ship container cable_car subway aircraft wheelchair scooter drone" speed="20.84" length="0.10" shape="2946.97,880.06 2946.93,879.98"/>
    </edge>
    <edge id=":1124936169_0" function="internal">
        <lane id=":1124936169_0_0" index="0" disallow="pedestrian tram rail_urban rail rail_electric rail_fast ship container cable_car subway aircraft wheelchair scooter drone" speed="20.84" length="0.48" shape="2924.50,1034.96 2924.55,1034.91 2924.58,1034.87 2924.60,1034.82 2924.64,1034.76"/>
        <lane id=":1124936169_0_1" index="1" disallow="pedestrian tram rail_urban rail rail_electric rail_fast ship container cable_car subway aircraft wheelchair scooter drone" speed="20.84" length="0.48" shape="2926.99,1036.97 2927.13,1036.81 2927.21,1036.69 2927.29,1036.57 2927.40,1036.38"/>
    </edge>
    <edge id=":1124936181_0" function="internal">
        <lane id=":1124936181_0_0" index="0" disallow="tram rail_urban rail rail_electric rail_fast ship container cable_car subway aircraft wheelchair scooter drone" speed="6.55" length="7.78" shape="2892.13,799.66 2890.95,797.95 2889.47,796.90 2887.70,796.52 2885.64,796.79"/>
    </edge>
    <edge id=":1124936181_1" function="internal">
        <lane id=":1124936181_1_0" index="0" disallow="tram rail_urban rail rail_electric rail_fast ship container cable_car subway aircraft wheelchair scooter drone" speed="22.22" length="9.34" shape="2894.98,798.21 2893.53,795.87 2892.26,794.41 2891.08,792.91 2889.91,790.44"/>
    </edge>
    <edge id=":11351610224_0" function="internal">
        <lane id=":11351610224_0_0" index="0" disallow="tram rail_urban rail rail_electric rail_fast ship container cable_car subway aircraft wheelchair scooter drone" speed="13.89" length="15.79" shape="1843.46,664.97 1848.25,663.65 1851.63,661.83 1854.33,659.71 1857.10,657.49"/>
    </edge>
    <edge id=":11351610224_1" function="internal">
        <lane id=":11351610224_1_0" index="0" disallow="tram rail_urban rail rail_electric rail_fast ship container cable_car subway aircraft wheelchair scooter drone" speed="16.67" length="15.81" shape="1843.46,664.97 1858.97,661.85"/>
        <lane id=":11351610224_1_1" index="1" disallow="tram rail_urban rail rail_electric rail_fast ship container cable_car subway aircraft wheelchair scooter drone" speed="16.67" length="15.81" shape="1844.01,668.13 1859.51,665.01"/>
        <lane id=":11351610224_1_2" index="2" disallow="tram rail_urban rail rail_electric rail_fast ship container cable_car subway aircraft wheelchair scooter drone" speed="16.67" length="15.81" shape="1844.56,671.28 1860.06,668.17"/>
    </edge>
    <edge id=":11919681803_0" function="internal">
        <lane id=":11919681803_0_0" index="0" disallow="tram rail_urban rail rail_electric rail_fast ship container cable_car subway aircraft wheelchair scooter drone" speed="3.65" length="4.67" shape="3095.01,547.32 3095.38,548.71 3095.14,549.57 3094.31,549.91 3092.89,549.70"/>
    </edge>
    <edge id=":12064044783_0" function="internal">
        <lane id=":12064044783_0_0" index="0" allow="pedestrian delivery bicycle" speed="3.65" length="4.67" shape="3132.03,1093.10 3133.46,1093.30 3134.16,1093.85 3134.15,1094.75 3133.41,1095.98"/>
    </edge>
    <edge id=":12064044785_0" function="internal">
        <lane id=":12064044785_0_0" index="0" allow="pedestrian delivery bicycle" speed="3.65" length="4.67" shape="3088.26,1131.85 3086.84,1131.61 3086.15,1131.04 3086.19,1130.15 3086.96,1128.93"/>
    </edge>
    <edge id=":12064044791_0" function="internal">
        <lane id=":12064044791_0_0" index="0" disallow="pedestrian bicycle tram rail_urban rail rail_electric rail_fast ship container cable_car subway aircraft wheelchair scooter drone" speed="19.58" length="5.37" shape="1667.77,1131.48 1669.33,1131.31 1670.41,1131.44 1671.49,1131.74 1673.05,1132.07"/>
    </edge>
    <edge id=":12064044791_1" function="internal">
        <lane id=":12064044791_1_0" index="0" disallow="pedestrian tram rail_urban rail rail_electric rail_fast ship container cable_car subway aircraft wheelchair scooter drone" speed="27.78" length="3.80" shape="1668.37,1134.63 1672.72,1133.91"/>
        <lane id=":12064044791_1_1" index="1" disallow="pedestrian tram rail_urban rail rail_electric rail_fast ship container cable_car subway aircraft wheelchair scooter drone" speed="27.78" length="3.80" shape="1668.98,1137.77 1672.13,1137.25"/>
    </edge>
    <edge id=":12240750450_0" function="internal">
        <lane id=":12240750450_0_0" index="0" allow="pedestrian delivery bicycle" speed="3.65" length="4.67" shape="1837.82,2125.39 1836.67,2126.26 1835.78,2126.37 1835.16,2125.73 1834.80,2124.33"/>
    </edge>
    <edge id=":12415081921_0" function="internal">
        <lane id=":12415081921_0_0" index="0" disallow="tram rail_urban rail rail_electric rail_fast ship container cable_car subway aircraft wheelchair scooter drone" speed="13.89" length="6.20" shape="1837.65,1839.01 1831.77,1840.98"/>
    </edge>
    <edge id=":12415081921_1" function="internal">
        <lane id=":12415081921_1_0" index="0" allow="pedestrian delivery bicycle" speed="6.10" length="1.66" shape="1837.65,1839.01 1836.25,1839.07 1836.03,1838.92"/>
    </edge>
    <edge id=":12415081921_4" function="internal">
        <lane id=":12415081921_4_0" index="0" allow="pedestrian delivery bicycle" speed="6.10" length="6.09" shape="1836.03,1838.92 1834.96,1838.25 1833.78,1836.56 1832.70,1834.01"/>
    </edge>
    <edge id=":12415081921_2" function="internal">
        <lane id=":12415081921_2_0" index="0" allow="pedestrian delivery bicycle" speed="5.03" length="5.01" shape="1830.76,1837.95 1831.99,1837.33 1832.72,1836.47 1832.96,1835.36 1832.70,1834.01"/>
    </edge>
    <edge id=":12415081921_3" function="internal">
        <lane id=":12415081921_3_0" index="0" disallow="tram rail_urban rail rail_electric rail_fast ship container cable_car subway aircraft wheelchair scooter drone" speed="13.89" length="6.20" shape="1830.76,1837.95 1836.64,1835.98"/>
    </edge>
    <edge id=":12536103581_0" function="internal">
        <lane id=":12536103581_0_0" index="0" allow="pedestrian delivery bicycle" speed="5.42" length="5.27" shape="2528.76,2164.56 2528.18,2163.15 2527.36,2162.19 2526.30,2161.69 2524.99,2161.64"/>
    </edge>
    <edge id=":12536103581_1" function="internal">
        <lane id=":12536103581_1_0" index="0" disallow="tram rail_urban rail rail_electric rail_fast ship container cable_car subway aircraft wheelchair scooter drone" speed="13.89" length="6.27" shape="2531.23,2160.95 2524.99,2161.64"/>
    </edge>
    <edge id=":12536134114_0" function="internal">
        <lane id=":12536134114_0_0" index="0" allow="pedestrian delivery bicycle" speed="8.88" length="6.55" shape="2878.12,2036.16 2876.17,2035.94 2874.73,2035.72 2873.44,2035.91 2871.90,2036.91"/>
    </edge>
    <edge id=":12536134114_1" function="internal">
        <lane id=":12536134114_1_0" index="0" disallow="tram rail_urban rail rail_electric rail_fast ship container cable_car subway aircraft wheelchair scooter drone" speed="13.89" length="7.05" shape="2877.27,2032.33 2871.90,2036.91"/>
    </edge>
    <edge id=":12536134121_0" function="internal">
        <lane id=":12536134121_0_0" index="0" allow="pedestrian delivery bicycle" speed="9.72" length="9.06" shape="2909.13,2005.13 2907.33,2006.99 2906.55,2008.63 2906.16,2010.53 2905.54,2013.17"/>
    </edge>
    <edge id=":12536134121_1" function="internal">
        <lane id=":12536134121_1_0" index="0" disallow="tram rail_urban rail rail_electric rail_fast ship container cable_car subway aircraft wheelchair scooter drone" speed="13.89" length="9.03" shape="2909.13,2005.13 2902.26,2010.99"/>
    </edge>
    <edge id=":12536134125_0" function="internal">
        <lane id=":12536134125_0_0" index="0" disallow="tram rail_urban rail rail_electric rail_fast ship container cable_car subway aircraft wheelchair scooter drone" speed="13.89" length="8.60" shape="2863.87,2043.76 2857.33,2049.34"/>
    </edge>
    <edge id=":12536134125_1" function="internal">
        <lane id=":12536134125_1_0" index="0" disallow="tram rail_urban rail rail_electric rail_fast ship container cable_car subway aircraft wheelchair scooter drone" speed="6.63" length="8.62" shape="2863.87,2043.76 2861.96,2044.95 2860.03,2045.28 2858.10,2044.75 2856.14,2043.34"/>
    </edge>
    <edge id=":12536134127_0" function="internal">
        <lane id=":12536134127_0_0" index="0" disallow="tram rail_urban rail rail_electric rail_fast ship container cable_car subway aircraft wheelchair scooter drone" speed="6.66" length="3.79" shape="2843.34,2030.10 2842.23,2027.92 2842.07,2026.59"/>
    </edge>
    <edge id=":12536134127_2" function="internal">
        <lane id=":12536134127_2_0" index="0" disallow="tram rail_urban rail rail_electric rail_fast ship container cable_car subway aircraft wheelchair scooter drone" speed="6.66" length="4.92" shape="2842.07,2026.59 2841.99,2025.89 2842.60,2024.02 2844.08,2022.32"/>
    </edge>
    <edge id=":12536134127_1" function="internal">
        <lane id=":12536134127_1_0" index="0" disallow="tram rail_urban rail rail_electric rail_fast ship container cable_car subway aircraft wheelchair scooter drone" speed="13.89" length="7.79" shape="2838.26,2027.50 2844.08,2022.32"/>
    </edge>
    <edge id=":12536134132_0" function="internal">
        <lane id=":12536134132_0_0" index="0" disallow="tram rail_urban rail rail_electric rail_fast ship container cable_car subway aircraft wheelchair scooter drone" speed="6.19" length="9.85" shape="2918.36,2130.46 2920.55,2132.58 2922.61,2133.36 2924.54,2132.82 2926.34,2130.95"/>
    </edge>
    <edge id=":12536134132_1" function="internal">
        <lane id=":12536134132_1_0" index="0" disallow="tram rail_urban rail rail_electric rail_fast ship container cable_car subway aircraft wheelchair scooter drone" speed="13.89" length="12.35" shape="2918.36,2130.46 2926.15,2140.04"/>
    </edge>
    <edge id=":12536134132_2" function="internal">
        <lane id=":12536134132_2_0" index="0" allow="pedestrian delivery bicycle" speed="5.83" length="10.90" shape="2918.36,2130.46 2920.43,2133.60 2920.79,2135.80 2919.44,2137.06 2916.39,2137.38"/>
    </edge>
    <edge id=":12536134132_3" function="internal">
        <lane id=":12536134132_3_0" index="0" allow="pedestrian delivery bicycle" speed="9.15" length="10.76" shape="2916.51,2134.18 2919.91,2134.08 2922.68,2133.51 2924.83,2132.47 2926.34,2130.95"/>
    </edge>
    <edge id=":12536134132_4" function="internal">
        <lane id=":12536134132_4_0" index="0" allow="pedestrian delivery bicycle" speed="9.72" length="11.61" shape="2916.51,2134.18 2918.96,2134.62 2921.39,2135.74 2923.78,2137.55 2926.15,2140.04"/>
    </edge>
    <edge id=":12536134132_5" function="internal">
        <lane id=":12536134132_5_0" index="0" allow="pedestrian delivery bicycle" speed="3.65" length="4.67" shape="2916.51,2134.18 2917.68,2135.02 2918.05,2135.84 2917.62,2136.62 2916.39,2137.38"/>
    </edge>
    <edge id=":12536134159_0" function="internal">
        <lane id=":12536134159_0_0" index="0" disallow="tram rail_urban rail rail_electric rail_fast ship container cable_car subway aircraft wheelchair scooter drone" speed="13.89" length="6.67" shape="2293.44,2088.06 2300.08,2087.51"/>
        <lane id=":12536134159_0_1" index="1" disallow="tram rail_urban rail rail_electric rail_fast ship container cable_car subway aircraft wheelchair scooter drone" speed="13.89" length="6.67" shape="2293.70,2091.25 2300.35,2090.70"/>
    </edge>
    <edge id=":12536134159_2" function="internal">
        <lane id=":12536134159_2_0" index="0" allow="pedestrian delivery bicycle" speed="7.20" length="6.07" shape="2293.70,2091.25 2294.79,2091.39 2295.97,2091.97 2297.24,2093.01 2298.60,2094.49"/>
    </edge>
    <edge id=":12552969204_0" function="internal">
        <lane id=":12552969204_0_0" index="0" allow="pedestrian delivery bicycle" speed="3.65" length="4.67" shape="3225.80,1852.22 3226.87,1851.25 3227.74,1851.06 3228.42,1851.64 3228.90,1853.00"/>
    </edge>
    <edge id=":12552969219_0" function="internal">
        <lane id=":12552969219_0_0" index="0" allow="pedestrian delivery bicycle" speed="5.78" length="5.89" shape="3297.25,1926.76 3299.03,1927.20 3300.51,1927.17 3301.68,1926.66 3302.54,1925.68"/>
    </edge>
    <edge id=":12552969219_1" function="internal">
        <lane id=":12552969219_1_0" index="0" allow="pedestrian delivery bicycle" speed="3.65" length="4.67" shape="3297.25,1926.76 3298.12,1927.91 3298.23,1928.80 3297.59,1929.42 3296.20,1929.78"/>
    </edge>
    <edge id=":12552969219_2" function="internal">
        <lane id=":12552969219_2_0" index="0" allow="pedestrian delivery bicycle" speed="4.85" length="5.26" shape="3297.69,1933.90 3298.26,1932.52 3298.20,1931.38 3297.51,1930.47 3296.20,1929.78"/>
    </edge>
    <edge id=":12552969219_3" function="internal">
        <lane id=":12552969219_3_0" index="0" disallow="tram rail_urban rail rail_electric rail_fast ship container cable_car subway aircraft wheelchair scooter drone" speed="27.78" length="9.54" shape="3297.69,1933.90 3302.54,1925.68"/>
        <lane id=":12552969219_3_1" index="1" disallow="tram rail_urban rail rail_electric rail_fast ship container cable_car subway aircraft wheelchair scooter drone" speed="27.78" length="9.54" shape="3300.45,1935.53 3305.30,1927.30"/>
    </edge>
    <edge id=":12573540677_0" function="internal">
        <lane id=":12573540677_0_0" index="0" allow="pedestrian delivery bicycle" speed="5.56" length="5.65" shape="2734.08,2162.45 2734.44,2168.09"/>
    </edge>
    <edge id=":12573540677_1" function="internal">
        <lane id=":12573540677_1_0" index="0" allow="pedestrian delivery bicycle" speed="4.82" length="4.62" shape="2731.12,2165.81 2732.51,2165.83 2733.52,2166.22 2734.17,2166.97 2734.44,2168.09"/>
    </edge>
    <edge id=":12740859782_0" function="internal">
        <lane id=":12740859782_0_0" index="0" allow="pedestrian delivery bicycle" speed="5.56" length="9.66" shape="3337.88,890.43 3332.45,882.45"/>
    </edge>
    <edge id=":12740859782_1" function="internal">
        <lane id=":12740859782_1_0" index="0" allow="pedestrian delivery bicycle" speed="5.56" length="10.32" shape="3337.88,890.43 3336.65,888.02 3336.50,885.71 3337.44,883.51 3339.46,881.42"/>
    </edge>
    <edge id=":12740859782_2" function="internal">
        <lane id=":12740859782_2_0" index="0" allow="pedestrian delivery bicycle" speed="3.65" length="4.67" shape="3337.88,890.43 3337.83,888.99 3338.24,888.20 3339.13,888.06 3340.48,888.56"/>
    </edge>
    <edge id=":12740859782_3" function="internal">
        <lane id=":12740859782_3_0" index="0" allow="pedestrian delivery bicycle" speed="5.26" length="5.34" shape="3341.45,883.93 3340.36,885.04 3339.84,886.18 3339.88,887.35 3340.48,888.56"/>
    </edge>
    <edge id=":12740859782_4" function="internal">
        <lane id=":12740859782_4_0" index="0" allow="pedestrian delivery bicycle" speed="5.56" length="10.65" shape="3341.45,883.93 3338.89,885.42 3336.54,885.67 3334.39,884.68 3332.45,882.45"/>
    </edge>
    <edge id=":12740859782_5" function="internal">
        <lane id=":12740859782_5_0" index="0" allow="pedestrian delivery bicycle" speed="3.65" length="4.67" shape="3341.45,883.93 3340.02,884.05 3339.21,883.67 3339.02,882.80 3339.46,881.42"/>
    </edge>
    <edge id=":12740859782_6" function="internal">
        <lane id=":12740859782_6_0" index="0" allow="pedestrian delivery bicycle" speed="4.94" length="5.12" shape="3335.14,880.71 3336.07,881.78 3337.10,882.26 3338.24,882.14 3339.46,881.42"/>
    </edge>
    <edge id=":12740859782_7" function="internal">
        <lane id=":12740859782_7_0" index="0" allow="pedestrian delivery bicycle" speed="5.56" length="9.50" shape="3335.14,880.71 3340.48,888.56"/>
    </edge>
    <edge id=":12740859782_8" function="internal">
        <lane id=":12740859782_8_0" index="0" allow="pedestrian delivery bicycle" speed="3.65" length="4.67" shape="3335.14,880.71 3335.12,882.15 3334.66,882.92 3333.77,883.02 3332.45,882.45"/>
    </edge>
    <edge id=":12740859783_0" function="internal">
        <lane id=":12740859783_0_0" index="0" allow="pedestrian delivery bicycle" speed="5.21" length="5.66" shape="3348.29,883.51 3347.15,882.23 3345.97,881.60 3344.77,881.61 3343.53,882.28"/>
    </edge>
    <edge id=":12740859783_1" function="internal">
        <lane id=":12740859783_1_0" index="0" allow="pedestrian delivery bicycle" speed="5.56" length="10.12" shape="3348.29,883.51 3342.53,875.19"/>
    </edge>
    <edge id=":12740859783_2" function="internal">
        <lane id=":12740859783_2_0" index="0" allow="pedestrian delivery bicycle" speed="5.56" length="11.50" shape="3348.29,883.51 3346.81,880.59 3346.78,878.11 3348.19,876.09 3351.06,874.50"/>
    </edge>
    <edge id=":12740859783_3" function="internal">
        <lane id=":12740859783_3_0" index="0" allow="pedestrian delivery bicycle" speed="3.65" length="4.67" shape="3348.29,883.51 3348.26,882.07 3348.68,881.28 3349.57,881.15 3350.91,881.67"/>
    </edge>
    <edge id=":12740859783_4" function="internal">
        <lane id=":12740859783_4_0" index="0" allow="pedestrian delivery bicycle" speed="4.82" length="5.33" shape="3352.19,877.49 3350.87,878.23 3350.21,879.17 3350.22,880.32 3350.91,881.67"/>
    </edge>
    <edge id=":12740859783_5" function="internal">
        <lane id=":12740859783_5_0" index="0" allow="pedestrian delivery bicycle" speed="5.56" length="9.97" shape="3352.19,877.49 3349.43,878.55 3347.58,879.39 3345.87,880.48 3343.53,882.28"/>
    </edge>
    <edge id=":12740859783_6" function="internal">
        <lane id=":12740859783_6_0" index="0" allow="pedestrian delivery bicycle" speed="5.56" length="10.82" shape="3352.19,877.49 3349.18,878.26 3346.56,878.14 3344.34,877.11 3342.53,875.19"/>
    </edge>
    <edge id=":12740859783_7" function="internal">
        <lane id=":12740859783_7_0" index="0" allow="pedestrian delivery bicycle" speed="3.65" length="4.67" shape="3352.19,877.49 3350.79,877.17 3350.13,876.56 3350.22,875.67 3351.06,874.50"/>
    </edge>
    <edge id=":12740859783_8" function="internal">
        <lane id=":12740859783_8_0" index="0" allow="pedestrian delivery bicycle" speed="5.56" length="6.50" shape="3345.18,873.39 3346.22,874.46 3347.55,875.00 3349.16,875.01 3351.06,874.50"/>
    </edge>