<?xml version="1.0" encoding="UTF-8"?>

<!-- generated on 2026-04-21T10:51:27.747642+03:00 by Eclipse SUMO netconvert 1.26.0
<netconvertConfiguration xmlns:xsi="http://www.w3.org/2001/XMLSchema-instance" xsi:noNamespaceSchemaLocation="http://sumo.dlr.de/xsd/netconvertConfiguration.xsd">

    <input>
        <osm-files value="../data_sandbox/simulation/sumo/wadi_saqra.osm"/>
    </input>

    <output>
        <output-file value="../data_sandbox/simulation/sumo/wadi_saqra_osm.net.xml"/>
        <output.street-names value="true"/>
    </output>

    <projection>
        <proj.utm value="true"/>
    </projection>

    <processing>
        <geometry.remove value="true"/>
        <roundabouts.guess value="true"/>
    </processing>

    <tls_building>
        <tls.guess value="true"/>
    </tls_building>

    <ramp_guessing>
        <ramps.guess value="true"/>
    </ramp_guessing>

    <junctions>
        <junctions.join value="true"/>
    </junctions>

    <formats>
        <osm.all-attributes value="true"/>
    </formats>

</netconvertConfiguration>
-->

<net version="1.20" junctionCornerDetail="5" limitTurnSpeed="5.50" xmlns:xsi="http://www.w3.org/2001/XMLSchema-instance" xsi:noNamespaceSchemaLocation="http://sumo.dlr.de/xsd/net_file.xsd">

    <location netOffset="-774082.21,-3539460.47" convBoundary="0.00,0.00,675.69,674.83" origBoundary="35.900012,31.958017,35.906992,31.963999" projParameter="+proj=utm +zone=36 +ellps=WGS84 +datum=WGS84 +units=m +no_defs"/>

    <type id="highway.footway" priority="1" numLanes="1" speed="2.78" allow="pedestrian" oneway="1" width="2.00"/>
    <type id="highway.pedestrian" priority="1" numLanes="1" speed="2.78" allow="pedestrian" oneway="1" width="2.00"/>
    <type id="highway.primary" priority="12" numLanes="2" speed="27.78" disallow="tram rail_urban rail rail_electric rail_fast ship container cable_car subway aircraft wheelchair scooter drone" oneway="0"/>
    <type id="highway.primary_link" priority="7" numLanes="1" speed="22.22" disallow="tram rail_urban rail rail_electric rail_fast ship container cable_car subway aircraft wheelchair scooter drone" oneway="0"/>
    <type id="highway.residential" priority="3" numLanes="1" speed="13.89" disallow="tram rail_urban rail rail_electric rail_fast ship container cable_car subway aircraft wheelchair scooter drone" oneway="0"/>
    <type id="highway.secondary" priority="11" numLanes="1" speed="27.78" disallow="tram rail_urban rail rail_electric rail_fast ship container cable_car subway aircraft wheelchair scooter drone" oneway="0"/>
    <type id="highway.secondary_link" priority="6" numLanes="1" speed="22.22" disallow="tram rail_urban rail rail_electric rail_fast ship container cable_car subway aircraft wheelchair scooter drone" oneway="0"/>
    <type id="highway.service" priority="1" numLanes="1" speed="5.56" allow="pedestrian delivery bicycle" oneway="0"/>
    <type id="highway.steps" priority="1" numLanes="1" speed="1.39" allow="pedestrian" oneway="1" width="2.00"/>
    <type id="highway.tertiary" priority="10" numLanes="1" speed="22.22" disallow="tram rail_urban rail rail_electric rail_fast ship container cable_car subway aircraft wheelchair scooter drone" oneway="0"/>

    <edge id=":13288937602_0" function="internal">
        <lane id=":13288937602_0_0" index="0" disallow="tram rail_urban rail rail_electric rail_fast ship container cable_car subway aircraft wheelchair scooter drone" speed="3.65" length="4.67" shape="600.62,557.70 602.03,558.00 602.69,558.60 602.61,559.49 601.79,560.68"/>
    </edge>
    <edge id=":1337022164_0" function="internal">
        <lane id=":1337022164_0_0" index="0" disallow="tram rail_urban rail rail_electric rail_fast ship container cable_car subway aircraft wheelchair scooter drone" speed="19.45" length="3.10" shape="416.37,138.02 413.26,137.96"/>
    </edge>
    <edge id=":1337022164_1" function="internal">
        <lane id=":1337022164_1_0" index="0" disallow="tram rail_urban rail rail_electric rail_fast ship container cable_car subway aircraft wheelchair scooter drone" speed="16.67" length="3.18" shape="416.37,134.74 413.21,134.76"/>
        <lane id=":1337022164_1_1" index="1" disallow="tram rail_urban rail rail_electric rail_fast ship container cable_car subway aircraft wheelchair scooter drone" speed="16.67" length="3.18" shape="416.37,131.54 413.16,131.56"/>
    </edge>
    <edge id=":1337022366_0" function="internal">
        <lane id=":1337022366_0_0" index="0" disallow="tram rail_urban rail rail_electric rail_fast ship container cable_car subway aircraft wheelchair scooter drone" speed="19.45" length="3.96" shape="442.64,284.19 445.41,281.36"/>
    </edge>
    <edge id=":1337022366_1" function="internal">
        <lane id=":1337022366_1_0" index="0" disallow="tram rail_urban rail rail_electric rail_fast ship container cable_car subway aircraft wheelchair scooter drone" speed="16.67" length="3.59" shape="445.05,286.31 447.40,283.43"/>
        <lane id=":1337022366_1_1" index="1" disallow="tram rail_urban rail rail_electric rail_fast ship container cable_car subway aircraft wheelchair scooter drone" speed="16.67" length="3.59" shape="447.45,288.43 449.64,285.76"/>
    </edge>
    <edge id=":151327154#1-AddedOffRampNode_0" function="internal">
        <lane id=":151327154#1-AddedOffRampNode_0_0" index="0" disallow="tram rail_urban rail rail_electric rail_fast ship container cable_car subway aircraft wheelchair scooter drone" speed="16.67" length="8.27" shape="331.38,123.57 333.82,122.97 335.31,121.81 336.81,120.65 339.24,120.05"/>
        <lane id=":151327154#1-AddedOffRampNode_0_1" index="1" disallow="tram rail_urban rail rail_electric rail_fast ship container cable_car subway aircraft wheelchair scooter drone" speed="16.67" length="8.27" shape="331.38,123.57 339.37,123.25"/>
        <lane id=":151327154#1-AddedOffRampNode_0_2" index="2" disallow="tram rail_urban rail rail_electric rail_fast ship container cable_car subway aircraft wheelchair scooter drone" speed="16.67" length="8.27" shape="331.51,126.77 339.50,126.45"/>
    </edge>
    <edge id=":1640172266_0" function="internal">
        <lane id=":1640172266_0_0" index="0" disallow="tram rail_urban rail rail_electric rail_fast ship container cable_car subway aircraft wheelchair scooter drone" speed="3.65" length="4.67" shape="432.94,7.42 432.86,5.98 433.25,5.17 434.13,5.01 435.50,5.48"/>
    </edge>
    <edge id=":1640172269_0" function="internal">
        <lane id=":1640172269_0_0" index="0" disallow="tram rail_urban rail rail_electric rail_fast ship container cable_car subway aircraft wheelchair scooter drone" speed="3.65" length="4.67" shape="107.51,1.59 106.43,0.64 106.13,-0.21 106.63,-0.95 107.93,-1.59"/>
    </edge>
    <edge id=":1640172273_0" function="internal">
        <lane id=":1640172273_0_0" index="0" allow="pedestrian delivery bicycle" speed="3.65" length="4.67" shape="178.45,36.17 177.42,35.17 177.17,34.31 177.70,33.60 179.03,33.03"/>
    </edge>
    <edge id=":1640172275_0" function="internal">
        <lane id=":1640172275_0_0" index="0" allow="pedestrian delivery bicycle" speed="6.89" length="7.16" shape="229.35,48.10 228.78,46.93 227.63,45.96 225.87,45.17 223.51,44.57"/>
    </edge>
    <edge id=":1640172275_1" function="internal">
        <lane id=":1640172275_1_0" index="0" disallow="tram rail_urban rail rail_electric rail_fast ship container cable_car subway aircraft wheelchair scooter drone" speed="13.89" length="10.05" shape="229.35,48.10 227.09,38.30"/>
    </edge>
    <edge id=":1640172275_2" function="internal">
        <lane id=":1640172275_2_0" index="0" disallow="tram rail_urban rail rail_electric rail_fast ship container cable_car subway aircraft wheelchair scooter drone" speed="13.89" length="10.16" shape="230.19,37.54 232.48,47.44"/>
    </edge>
    <edge id=":1640172275_3" function="internal">
        <lane id=":1640172275_3_0" index="0" allow="pedestrian delivery bicycle" speed="6.67" length="3.96" shape="230.19,37.54 230.57,41.25 230.48,41.47"/>
    </edge>
    <edge id=":1640172275_7" function="internal">
        <lane id=":1640172275_7_0" index="0" allow="pedestrian delivery bicycle" speed="6.67" length="8.68" shape="230.48,41.47 229.58,43.65 227.23,44.76 223.51,44.57"/>
    </edge>
    <edge id=":1640172275_4" function="internal">
        <lane id=":1640172275_4_0" index="0" allow="pedestrian delivery bicycle" speed="4.71" length="5.63" shape="224.11,41.43 225.77,41.51 226.81,41.02 227.25,39.95 227.09,38.30"/>
    </edge>
    <edge id=":1640172275_5" function="internal">
        <lane id=":1640172275_5_0" index="0" allow="pedestrian delivery bicycle" speed="8.37" length="10.92" shape="224.11,41.43 227.41,42.33 229.91,43.64 231.60,45.34 232.48,47.44"/>
    </edge>
    <edge id=":1640172275_6" function="internal">
        <lane id=":1640172275_6_0" index="0" allow="pedestrian delivery bicycle" speed="3.65" length="4.67" shape="224.11,41.43 225.14,42.44 225.38,43.30 224.84,44.01 223.51,44.57"/>
    </edge>
    <edge id=":1640172276_0" function="internal">
        <lane id=":1640172276_0_0" index="0" allow="pedestrian delivery bicycle" speed="3.65" length="4.67" shape="12.81,58.03 13.14,56.63 13.76,55.98 14.65,56.08 15.81,56.93"/>
    </edge>
    <edge id=":1640172277_0" function="internal">
        <lane id=":1640172277_0_0" index="0" allow="pedestrian delivery bicycle" speed="3.65" length="4.67" shape="18.12,63.19 17.79,64.59 17.17,65.24 16.28,65.14 15.12,64.29"/>
    </edge>
    <edge id=":1641234542_0" function="internal">
        <lane id=":1641234542_0_0" index="0" disallow="tram rail_urban rail rail_electric rail_fast ship container cable_car subway aircraft wheelchair scooter drone" speed="3.65" length="4.67" shape="221.47,298.56 220.52,299.64 219.67,299.92 218.93,299.42 218.31,298.12"/>
    </edge>
    <edge id=":1641234579_0" function="internal">
        <lane id=":1641234579_0_0" index="0" disallow="tram rail_urban rail rail_electric rail_fast ship container cable_car subway aircraft wheelchair scooter drone" speed="6.11" length="10.98" shape="262.66,359.37 260.56,357.65 258.61,357.65 256.81,359.38 255.17,362.83"/>
    </edge>
    <edge id=":1641234579_1" function="internal">
        <lane id=":1641234579_1_0" index="0" disallow="tram rail_urban rail rail_electric rail_fast ship container cable_car subway aircraft wheelchair scooter drone" speed="9.42" length="16.32" shape="262.66,359.37 259.72,356.90 256.25,355.81 252.25,356.10 247.72,357.77"/>
    </edge>
    <edge id=":1641234579_2" function="internal">
        <lane id=":1641234579_2_0" index="0" disallow="tram rail_urban rail rail_electric rail_fast ship container cable_car subway aircraft wheelchair scooter drone" speed="3.65" length="1.29" shape="262.66,359.37 262.52,358.10"/>
    </edge>
    <edge id=":1641234579_9" function="internal">
        <lane id=":1641234579_9_0" index="0" disallow="tram rail_urban rail rail_electric rail_fast ship container cable_car subway aircraft wheelchair scooter drone" speed="3.65" length="3.39" shape="262.52,358.10 262.50,357.94 262.85,357.12 263.72,356.91 265.11,357.31"/>
    </edge>
    <edge id=":1641234579_3" function="internal">
        <lane id=":1641234579_3_0" index="0" disallow="tram rail_urban rail rail_electric rail_fast ship container cable_car subway aircraft wheelchair scooter drone" speed="10.53" length="20.60" shape="246.31,354.90 251.92,352.87 256.93,352.59 261.32,354.07 265.11,357.31"/>
    </edge>
    <edge id=":1641234579_4" function="internal">
        <lane id=":1641234579_4_0" index="0" disallow="tram rail_urban rail rail_electric rail_fast ship container cable_car subway aircraft wheelchair scooter drone" speed="7.44" length="8.89" shape="246.31,354.90 252.22,352.76 254.78,353.21"/>
    </edge>
    <edge id=":1641234579_5" function="internal">
        <lane id=":1641234579_5_0" index="0" disallow="tram rail_urban rail rail_electric rail_fast ship container cable_car subway aircraft wheelchair scooter drone" speed="3.65" length="1.44" shape="246.31,354.90 247.74,355.09"/>
    </edge>
    <edge id=":1641234579_10" function="internal">
        <lane id=":1641234579_10_0" index="0" disallow="tram rail_urban rail rail_electric rail_fast ship container cable_car subway aircraft wheelchair scooter drone" speed="7.44" length="10.68" shape="254.78,353.21 255.66,353.37 256.65,356.73 255.17,362.83"/>
    </edge>
    <edge id=":1641234579_11" function="internal">
        <lane id=":1641234579_11_0" index="0" disallow="tram rail_urban rail rail_electric rail_fast ship container cable_car subway aircraft wheelchair scooter drone" speed="3.65" length="3.23" shape="247.74,355.09 248.45,355.63 248.45,356.52 247.72,357.77"/>
    </edge>
    <edge id=":1641234579_6" function="internal">
        <lane id=":1641234579_6_0" index="0" disallow="tram rail_urban rail rail_electric rail_fast ship container cable_car subway aircraft wheelchair scooter drone" speed="5.47" length="9.80" shape="252.16,361.75 252.90,358.69 252.41,357.00 250.68,356.70 247.72,357.77"/>
    </edge>
    <edge id=":1641234579_7" function="internal">
        <lane id=":1641234579_7_0" index="0" disallow="tram rail_urban rail rail_electric rail_fast ship container cable_car subway aircraft wheelchair scooter drone" speed="7.74" length="18.49" shape="252.16,361.75 254.85,356.28 257.90,353.72 261.32,354.06 265.11,357.31"/>
    </edge>
    <edge id=":1641234579_8" function="internal">
        <lane id=":1641234579_8_0" index="0" disallow="tram rail_urban rail rail_electric rail_fast ship container cable_car subway aircraft wheelchair scooter drone" speed="3.65" length="4.67" shape="252.16,361.75 253.32,360.89 254.21,360.78 254.83,361.43 255.17,362.83"/>
    </edge>
    <edge id=":1641234603_0" function="internal">
        <lane id=":1641234603_0_0" index="0" disallow="tram rail_urban rail rail_electric rail_fast ship container cable_car subway aircraft wheelchair scooter drone" speed="3.65" length="4.67" shape="288.02,367.44 289.07,368.42 289.34,369.28 288.82,370.00 287.50,370.60"/>
    </edge>
    <edge id=":1641520132_0" function="internal">
        <lane id=":1641520132_0_0" index="0" disallow="tram rail_urban rail rail_electric rail_fast ship container cable_car subway aircraft wheelchair scooter drone" speed="19.45" length="5.11" shape="433.25,116.28 434.76,116.26 435.80,116.35 436.82,116.57 438.29,116.92"/>
    </edge>
    <edge id=":1641520132_1" function="internal">
        <lane id=":1641520132_1_0" index="0" disallow="tram rail_urban rail rail_electric rail_fast ship container cable_car subway aircraft wheelchair scooter drone" speed="16.67" length="3.84" shape="433.38,119.48 434.65,119.44 435.52,119.47 436.38,119.60 437.61,119.86"/>
        <lane id=":1641520132_1_1" index="1" disallow="tram rail_urban rail rail_electric rail_fast ship container cable_car subway aircraft wheelchair scooter drone" speed="16.67" length="3.84" shape="433.51,122.68 434.52,122.64 435.22,122.66 435.91,122.77 436.90,122.98"/>
    </edge>
    <edge id=":1641520134_0" function="internal">
        <lane id=":1641520134_0_0" index="0" disallow="tram rail_urban rail rail_electric rail_fast ship container cable_car subway aircraft wheelchair scooter drone" speed="22.23" length="0.24" shape="581.65,133.20 581.54,133.34"/>
        <lane id=":1641520134_0_1" index="1" disallow="tram rail_urban rail rail_electric rail_fast ship container cable_car subway aircraft wheelchair scooter drone" speed="22.23" length="0.24" shape="579.21,131.13 579.01,131.37"/>
    </edge>
    <edge id=":1641520152_0" function="internal">
        <lane id=":1641520152_0_0" index="0" disallow="tram rail_urban rail rail_electric rail_fast ship container cable_car subway aircraft wheelchair scooter drone" speed="19.45" length="3.34" shape="632.86,151.97 633.79,151.64 634.42,151.40 635.04,151.10 635.91,150.64"/>
    </edge>
    <edge id=":1641520152_1" function="internal">
        <lane id=":1641520152_1_0" index="0" disallow="tram rail_urban rail rail_electric rail_fast ship container cable_car subway aircraft wheelchair scooter drone" speed="16.67" length="3.89" shape="634.04,155.06 635.07,154.62 635.76,154.31 636.45,153.98 637.43,153.46"/>
        <lane id=":1641520152_1_1" index="1" disallow="tram rail_urban rail rail_electric rail_fast ship container cable_car subway aircraft wheelchair scooter drone" speed="16.67" length="3.89" shape="635.30,158.00 636.40,157.53 637.15,157.20 637.89,156.84 638.94,156.28"/>
    </edge>
    <edge id=":1641520168_0" function="internal">
        <lane id=":1641520168_0_0" index="0" disallow="tram rail_urban rail rail_electric rail_fast ship container cable_car subway aircraft wheelchair scooter drone" speed="22.23" length="0.30" shape="526.37,184.97 526.56,184.74"/>
        <lane id=":1641520168_0_1" index="1" disallow="tram rail_urban rail rail_electric rail_fast ship container cable_car subway aircraft wheelchair scooter drone" speed="22.23" length="0.30" shape="528.86,186.99 529.05,186.75"/>
    </edge>
    <edge id=":1641520174_0" function="internal">
        <lane id=":1641520174_0_0" index="0" disallow="tram rail_urban rail rail_electric rail_fast ship container cable_car subway aircraft wheelchair scooter drone" speed="25.00" length="2.80" shape="441.92,311.62 440.15,313.78"/>
    </edge>
    <edge id=":1641520174_1" function="internal">
        <lane id=":1641520174_1_0" index="0" disallow="tram rail_urban rail rail_electric rail_fast ship container cable_car subway aircraft wheelchair scooter drone" speed="27.78" length="2.97" shape="439.42,309.56 437.61,311.84"/>
        <lane id=":1641520174_1_1" index="1" disallow="tram rail_urban rail rail_electric rail_fast ship container cable_car subway aircraft wheelchair scooter drone" speed="27.78" length="2.97" shape="436.94,307.53 435.07,309.89"/>
    </edge>
    <edge id=":1641520177_0" function="internal">
        <lane id=":1641520177_0_0" index="0" disallow="tram rail_urban rail rail_electric rail_fast ship container cable_car subway aircraft wheelchair scooter drone" speed="3.65" length="4.67" shape="640.24,238.16 641.66,238.45 642.33,239.03 642.26,239.93 641.46,241.12"/>
    </edge>
    <edge id=":1641520185_0" function="internal">
        <lane id=":1641520185_0_0" index="0" allow="pedestrian delivery bicycle" speed="5.70" length="4.52" shape="423.04,302.95 424.20,303.16 425.27,303.04 426.25,302.58 427.13,301.80"/>
    </edge>
    <edge id=":1641520185_1" function="internal">
        <lane id=":1641520185_1_0" index="0" disallow="tram rail_urban rail rail_electric rail_fast ship container cable_car subway aircraft wheelchair scooter drone" speed="16.67" length="5.01" shape="426.26,307.73 429.54,303.91"/>
        <lane id=":1641520185_1_1" index="1" disallow="tram rail_urban rail rail_electric rail_fast ship container cable_car subway aircraft wheelchair scooter drone" speed="16.67" length="5.01" shape="428.68,309.81 431.94,306.03"/>
    </edge>
    <edge id=":2101040100_0" function="internal">
        <lane id=":2101040100_0_0" index="0" disallow="tram rail_urban rail rail_electric rail_fast ship container cable_car subway aircraft wheelchair scooter drone" speed="22.22" length="4.98" shape="624.34,248.31 619.84,250.43"/>
    </edge>
    <edge id=":2101040100_1" function="internal">
        <lane id=":2101040100_1_0" index="0" disallow="tram rail_urban rail rail_electric rail_fast ship container cable_car subway aircraft wheelchair scooter drone" speed="22.22" length="4.90" shape="618.51,247.53 622.94,245.43"/>
    </edge>
    <edge id=":302778052#2-AddedOffRampNode_0" function="internal">
        <lane id=":302778052#2-AddedOffRampNode_0_0" index="0" disallow="tram rail_urban rail rail_electric rail_fast ship container cable_car subway aircraft wheelchair scooter drone" speed="27.78" length="8.92" shape="351.53,601.97 349.39,603.89 348.97,606.41 348.56,608.94 346.42,610.85"/>
        <lane id=":302778052#2-AddedOffRampNode_0_1" index="1" disallow="tram rail_urban rail rail_electric rail_fast ship container cable_car subway aircraft wheelchair scooter drone" speed="27.78" length="8.92" shape="351.53,601.97 349.42,603.34 348.39,604.92 347.36,606.51 345.25,607.87"/>
        <lane id=":302778052#2-AddedOffRampNode_0_2" index="2" disallow="tram rail_urban rail rail_electric rail_fast ship container cable_car subway aircraft wheelchair scooter drone" speed="27.78" length="8.92" shape="351.53,601.97 344.08,604.90"/>
        <lane id=":302778052#2-AddedOffRampNode_0_3" index="3" disallow="tram rail_urban rail rail_electric rail_fast ship container cable_car subway aircraft wheelchair scooter drone" speed="27.78" length="8.92" shape="350.36,599.00 342.91,601.92"/>
    </edge>
    <edge id=":302778069#0-AddedOnRampNode_0" function="internal">
        <lane id=":302778069#0-AddedOnRampNode_0_0" index="0" disallow="tram rail_urban rail rail_electric rail_fast ship container cable_car subway aircraft wheelchair scooter drone" speed="16.67" length="8.00" shape="362.96,388.07 367.93,381.80"/>
        <lane id=":302778069#0-AddedOnRampNode_0_1" index="1" disallow="tram rail_urban rail rail_electric rail_fast ship container cable_car subway aircraft wheelchair scooter drone" speed="16.67" length="8.00" shape="365.47,390.06 370.44,383.79"/>
    </edge>
    <edge id=":3070558933_0" function="internal">
        <lane id=":3070558933_0_0" index="0" disallow="tram rail_urban rail rail_electric rail_fast ship container cable_car subway aircraft wheelchair scooter drone" speed="27.78" length="3.11" shape="218.57,640.47 221.50,639.33"/>
        <lane id=":3070558933_0_1" index="1" disallow="tram rail_urban rail rail_electric rail_fast ship container cable_car subway aircraft wheelchair scooter drone" speed="27.78" length="3.11" shape="219.75,643.44 222.63,642.32"/>
    </edge>
    <edge id=":3070558933_2" function="internal">
        <lane id=":3070558933_2_0" index="0" disallow="tram rail_urban rail rail_electric rail_fast ship container cable_car subway aircraft wheelchair scooter drone" speed="27.78" length="3.22" shape="216.23,634.59 219.22,633.34"/>
        <lane id=":3070558933_2_1" index="1" disallow="tram rail_urban rail rail_electric rail_fast ship container cable_car subway aircraft wheelchair scooter drone" speed="27.78" length="3.22" shape="217.42,637.57 220.36,636.34"/>
    </edge>
    <edge id=":3070580234_0" function="internal">
        <lane id=":3070580234_0_0" index="0" disallow="tram rail_urban rail rail_electric rail_fast ship container cable_car subway aircraft wheelchair scooter drone" speed="27.78" length="3.29" shape="258.67,645.32 257.72,645.72 257.07,645.97 256.41,646.19 255.43,646.50"/>
        <lane id=":3070580234_0_1" index="1" disallow="tram rail_urban rail rail_electric rail_fast ship container cable_car subway aircraft wheelchair scooter drone" speed="27.78" length="3.29" shape="257.42,642.38 256.56,642.74 255.96,642.96 255.36,643.17 254.47,643.44"/>
    </edge>
    <edge id=":3070580234_2" function="internal">
        <lane id=":3070580234_2_0" index="0" disallow="tram rail_urban rail rail_electric rail_fast ship container cable_car subway aircraft wheelchair scooter drone" speed="27.78" length="2.67" shape="256.17,639.43 253.54,640.46"/>
        <lane id=":3070580234_2_1" index="1" disallow="tram rail_urban rail rail_electric rail_fast ship container cable_car subway aircraft wheelchair scooter drone" speed="27.78" length="2.67" shape="254.92,636.48 252.58,637.41"/>
    </edge>
    <edge id=":3070580264_0" function="internal">
        <lane id=":3070580264_0_0" index="0" disallow="tram rail_urban rail rail_electric rail_fast ship container cable_car subway aircraft wheelchair scooter drone" speed="27.78" length="33.10" shape="137.85,643.51 145.04,638.70 152.58,632.54 159.10,626.60 163.26,622.43"/>
    </edge>
    <edge id=":3070580264_1" function="internal">
        <lane id=":3070580264_1_0" index="0" disallow="tram rail_urban rail rail_electric rail_fast ship container cable_car subway aircraft wheelchair scooter drone" speed="18.05" length="33.01" shape="146.15,650.03 146.95,645.30 150.07,639.12 155.51,631.50 163.26,622.43"/>
    </edge>
    <edge id=":3070580289_0" function="internal">
        <lane id=":3070580289_0_0" index="0" disallow="tram rail_urban rail rail_electric rail_fast ship container cable_car subway aircraft wheelchair scooter drone" speed="25.00" length="5.79" shape="295.28,611.22 296.96,611.03 298.17,611.28 299.36,611.46 300.97,611.08"/>
    </edge>
    <edge id=":3070580289_1" function="internal">
        <lane id=":3070580289_1_0" index="0" disallow="tram rail_urban rail rail_electric rail_fast ship container cable_car subway aircraft wheelchair scooter drone" speed="27.78" length="4.58" shape="292.49,600.95 296.05,599.27"/>
        <lane id=":3070580289_1_1" index="1" disallow="tram rail_urban rail rail_electric rail_fast ship container cable_car subway aircraft wheelchair scooter drone" speed="27.78" length="4.58" shape="293.35,604.11 297.28,602.22"/>
        <lane id=":3070580289_1_2" index="2" disallow="tram rail_urban rail rail_electric rail_fast ship container cable_car subway aircraft wheelchair scooter drone" speed="27.78" length="4.58" shape="294.21,607.28 298.51,605.18"/>
        <lane id=":3070580289_1_3" index="3" disallow="tram rail_urban rail rail_electric rail_fast ship container cable_car subway aircraft wheelchair scooter drone" speed="27.78" length="4.58" shape="295.07,610.44 299.74,608.13"/>
    </edge>
    <edge id=":375826055#1-AddedOnRampNode_0" function="internal">
        <lane id=":375826055#1-AddedOnRampNode_0_0" index="0" disallow="tram rail_urban rail rail_electric rail_fast ship container cable_car subway aircraft wheelchair scooter drone" speed="27.78" length="8.00" shape="387.39,572.81 394.91,570.08"/>
        <lane id=":375826055#1-AddedOnRampNode_0_1" index="1" disallow="tram rail_urban rail rail_electric rail_fast ship container cable_car subway aircraft wheelchair scooter drone" speed="27.78" length="8.00" shape="388.48,575.82 396.00,573.09"/>
    </edge>
    <edge id=":3776529919_0" function="internal">
        <lane id=":3776529919_0_0" index="0" disallow="tram rail_urban rail rail_electric rail_fast ship container cable_car subway aircraft wheelchair scooter drone" speed="6.90" length="10.20" shape="579.93,527.96 578.49,525.24 576.72,523.58 574.60,522.98 572.15,523.44"/>
    </edge>
    <edge id=":3776529919_1" function="internal">
        <lane id=":3776529919_1_0" index="0" disallow="tram rail_urban rail rail_electric rail_fast ship container cable_car subway aircraft wheelchair scooter drone" speed="13.89" length="11.73" shape="579.93,527.96 575.68,517.03"/>
    </edge>
    <edge id=":3776529919_2" function="internal">
        <lane id=":3776529919_2_0" index="0" disallow="tram rail_urban rail rail_electric rail_fast ship container cable_car subway aircraft wheelchair scooter drone" speed="8.04" length="4.04" shape="579.93,527.96 579.06,524.19 579.08,524.03"/>
    </edge>
    <edge id=":3776529919_3" function="internal">
        <lane id=":3776529919_3_0" index="0" disallow="tram rail_urban rail rail_electric rail_fast ship container cable_car subway aircraft wheelchair scooter drone" speed="3.65" length="1.44" shape="579.93,527.96 580.24,526.56"/>
    </edge>
    <edge id=":3776529919_12" function="internal">
        <lane id=":3776529919_12_0" index="0" disallow="tram rail_urban rail rail_electric rail_fast ship container cable_car subway aircraft wheelchair scooter drone" speed="8.04" length="10.25" shape="579.08,524.03 579.62,521.02 581.62,518.47 585.06,516.52"/>
    </edge>
    <edge id=":3776529919_13" function="internal">
        <lane id=":3776529919_13_0" index="0" disallow="tram rail_urban rail rail_electric rail_fast ship container cable_car subway aircraft wheelchair scooter drone" speed="3.65" length="3.23" shape="580.24,526.56 580.85,525.90 581.74,525.98 582.91,526.81"/>
    </edge>
    <edge id=":3776529919_4" function="internal">
        <lane id=":3776529919_4_0" index="0" disallow="tram rail_urban rail rail_electric rail_fast ship container cable_car subway aircraft wheelchair scooter drone" speed="6.62" length="9.35" shape="586.46,519.41 584.15,520.70 582.79,522.36 582.38,524.40 582.91,526.81"/>
    </edge>
    <edge id=":3776529919_5" function="internal">
        <lane id=":3776529919_5_0" index="0" disallow="tram rail_urban rail rail_electric rail_fast ship container cable_car subway aircraft wheelchair scooter drone" speed="13.89" length="14.88" shape="586.46,519.41 582.92,520.56 579.32,521.45 575.71,522.32 572.15,523.44"/>
    </edge>
    <edge id=":3776529919_6" function="internal">
        <lane id=":3776529919_6_0" index="0" disallow="tram rail_urban rail rail_electric rail_fast ship container cable_car subway aircraft wheelchair scooter drone" speed="7.52" length="12.46" shape="586.46,519.41 582.59,520.52 579.50,520.50 577.19,519.34 575.68,517.03"/>
    </edge>
    <edge id=":3776529919_7" function="internal">
        <lane id=":3776529919_7_0" index="0" disallow="tram rail_urban rail rail_electric rail_fast ship container cable_car subway aircraft wheelchair scooter drone" speed="3.65" length="4.69" shape="586.46,519.41 585.03,519.21 584.32,518.66 584.33,517.77 585.06,516.52"/>
    </edge>
    <edge id=":3776529919_8" function="internal">
        <lane id=":3776529919_8_0" index="0" disallow="tram rail_urban rail rail_electric rail_fast ship container cable_car subway aircraft wheelchair scooter drone" speed="5.86" length="7.14" shape="578.66,515.87 579.46,516.94 580.80,517.41 582.66,517.27 585.06,516.52"/>
    </edge>
    <edge id=":3776529919_9" function="internal">
        <lane id=":3776529919_9_0" index="0" disallow="tram rail_urban rail rail_electric rail_fast ship container cable_car subway aircraft wheelchair scooter drone" speed="13.89" length="11.74" shape="578.66,515.87 582.91,526.81"/>
    </edge>
    <edge id=":3776529919_10" function="internal">