<?xml version="1.0" encoding="UTF-8"?>
<routes xmlns:xsi="http://www.w3.org/2001/XMLSchema-instance" xsi:noNamespaceSchemaLocation="http://sumo.dlr.de/xsd/routes_file.xsd">
    <vType id="car" accel="2.6" decel="4.5" sigma="0.5" length="5" minGap="2.5" maxSpeed="13.89" guiShape="passenger"/>
    <vType id="bus" accel="1.2" decel="4.0" sigma="0.5" length="12" minGap="3" maxSpeed="11.11" guiShape="bus"/>
    <vType id="truck" accel="1.0" decel="3.5" sigma="0.5" length="15" minGap="4" maxSpeed="10.00" guiShape="truck"/>

    <!-- Flows -->
    <flow id="flow_NS" type="car" begin="0" end="3600" vehsPerHour="1200" from="north" to="south"/>
    <flow id="flow_SN" type="car" begin="0" end="3600" vehsPerHour="1000" from="south" to="north"/>
    <flow id="flow_EW" type="car" begin="0" end="3600" vehsPerHour="800" from="east" to="west"/>
    <flow id="flow_WE" type="car" begin="0" end="3600" vehsPerHour="900" from="west" to="east"/>
</routes>
