<configuration>
    <input>
        <net-file value="wadi_saqra_live.net.xml"/>
        <route-files value="wadi_saqra_live_bootstrap.rou.xml"/>
    </input>
    <time>
        <begin value="0"/>
        <end value="86400"/>
    </time>
    <report>
        <no-step-log value="true"/>
    </report>
</configuration>