<?xml version="1.0" encoding="UTF-8"?>

<!-- generated on 2026-04-21T15:29:27.548631+03:00 by Eclipse SUMO netconvert 1.26.0
<netconvertConfiguration xmlns:xsi="http://www.w3.org/2001/XMLSchema-instance" xsi:noNamespaceSchemaLocation="http://sumo.dlr.de/xsd/netconvertConfiguration.xsd">

    <input>
        <osm-files value="/Users/ahmadhasasneh/Desktop/Intelligent-Traffic-Light/Traffic_Project_Simulation/sumo_scenarios/live/wadi_saqra_live.osm.xml"/>
    </input>

    <output>
        <output-file value="/Users/ahmadhasasneh/Desktop/Intelligent-Traffic-Light/Traffic_Project_Simulation/sumo_scenarios/live/wadi_saqra_live.net.xml"/>
    </output>

    <projection>
        <proj.utm value="true"/>
    </projection>

    <processing>
        <geometry.remove value="true"/>
        <roundabouts.guess value="true"/>
    </processing>

    <tls_building>
        <tls.discard-simple value="false"/>
        <tls.join value="true"/>
        <tls.guess-signals value="true"/>
    </tls_building>

    <ramp_guessing>
        <ramps.guess value="true"/>
    </ramp_guessing>

    <junctions>
        <junctions.join value="true"/>
    </junctions>

</netconvertConfiguration>
-->

<net version="1.20" junctionCornerDetail="5" limitTurnSpeed="5.50" xmlns:xsi="http://www.w3.org/2001/XMLSchema-instance" xsi:noNamespaceSchemaLocation="http://sumo.dlr.de/xsd/net_file.xsd">

    <location netOffset="-772364.30,-3539263.41" convBoundary="0.00,0.00,1487.11,2068.92" origBoundary="35.881931,31.956400,35.897472,31.975229" projParameter="+proj=utm +zone=36 +ellps=WGS84 +datum=WGS84 +units=m +no_defs"/>

    <type id="highway.busway" priority="1" numLanes="1" speed="27.78" allow="bus" oneway="1"/>
    <type id="highway.footway" priority="1" numLanes="1" speed="2.78" allow="pedestrian" oneway="1" width="2.00"/>
    <type id="highway.living_street" priority="2" numLanes="1" speed="2.78" disallow="tram rail_urban rail rail_electric rail_fast ship container cable_car subway aircraft wheelchair scooter drone" oneway="0"/>
    <type id="highway.primary" priority="12" numLanes="2" speed="27.78" disallow="tram rail_urban rail rail_electric rail_fast ship container cable_car subway aircraft wheelchair scooter drone" oneway="0"/>
    <type id="highway.primary_link" priority="7" numLanes="1" speed="22.22" disallow="tram rail_urban rail rail_electric rail_fast ship container cable_car subway aircraft wheelchair scooter drone" oneway="0"/>
    <type id="highway.residential" priority="3" numLanes="1" speed="13.89" disallow="tram rail_urban rail rail_electric rail_fast ship container cable_car subway aircraft wheelchair scooter drone" oneway="0"/>
    <type id="highway.secondary" priority="11" numLanes="1" speed="27.78" disallow="tram rail_urban rail rail_electric rail_fast ship container cable_car subway aircraft wheelchair scooter drone" oneway="0"/>
    <type id="highway.secondary_link" priority="6" numLanes="1" speed="22.22" disallow="tram rail_urban rail rail_electric rail_fast ship container cable_car subway aircraft wheelchair scooter drone" oneway="0"/>
    <type id="highway.service" priority="1" numLanes="1" speed="5.56" allow="pedestrian delivery bicycle" oneway="0"/>

    <edge id=":10989299523_0" function="internal">
        <lane id=":10989299523_0_0" index="0" allow="bus bicycle" speed="27.78" length="3.22" shape="483.23,1142.79 482.53,1145.94"/>
    </edge>
    <edge id=":10989299524_0" function="internal">
        <lane id=":10989299524_0_0" index="0" disallow="tram rail_urban rail rail_electric rail_fast ship container cable_car subway aircraft wheelchair scooter drone" speed="22.22" length="5.02" shape="522.37,1099.06 524.96,1103.36"/>
    </edge>
    <edge id=":10989299526_0" function="internal">
        <lane id=":10989299526_0_0" index="0" disallow="tram rail_urban rail rail_electric rail_fast ship container cable_car subway aircraft wheelchair scooter drone" speed="22.22" length="5.00" shape="441.18,1145.32 438.95,1140.84"/>
    </edge>
    <edge id=":10989299584_0" function="internal">
        <lane id=":10989299584_0_0" index="0" allow="bus bicycle" speed="27.78" length="4.10" shape="462.03,1117.51 458.32,1115.76"/>
    </edge>
    <edge id=":10989299585_0" function="internal">
        <lane id=":10989299585_0_0" index="0" allow="bus bicycle" speed="27.78" length="16.89" shape="477.82,1124.05 462.21,1117.59"/>
    </edge>
    <edge id=":10989299585_1" function="internal">
        <lane id=":10989299585_1_0" index="0" allow="bus bicycle" speed="5.88" length="6.90" shape="477.82,1124.05 475.22,1122.98 473.42,1122.03 472.42,1121.20 472.23,1120.47"/>
        <lane id=":10989299585_1_1" index="1" allow="bus bicycle" speed="4.68" length="4.00" shape="477.82,1124.05 476.54,1123.46 475.68,1122.83 475.27,1122.15 475.28,1121.43"/>
        <lane id=":10989299585_1_2" index="2" allow="bus bicycle" speed="3.64" length="2.03" shape="477.82,1124.05 477.52,1123.77 477.68,1123.41 478.03,1122.95 478.34,1122.38"/>
    </edge>
    <edge id=":10989299585_4" function="internal">
        <lane id=":10989299585_4_0" index="0" allow="bus bicycle" speed="4.96" length="4.41" shape="465.65,1120.06 465.37,1119.33 464.38,1118.62 463.17,1118.01 462.21,1117.59"/>
    </edge>
    <edge id=":10989299585_5" function="internal">
        <lane id=":10989299585_5_0" index="0" disallow="tram rail_urban rail rail_electric rail_fast ship container cable_car subway aircraft wheelchair scooter drone" speed="27.78" length="1.58" shape="465.65,1120.06 466.12,1118.56"/>
        <lane id=":10989299585_5_1" index="1" disallow="tram rail_urban rail rail_electric rail_fast ship container cable_car subway aircraft wheelchair scooter drone" speed="27.78" length="1.58" shape="468.70,1121.02 469.17,1119.52"/>
        <lane id=":10989299585_5_2" index="2" disallow="tram rail_urban rail rail_electric rail_fast ship container cable_car subway aircraft wheelchair scooter drone" speed="27.78" length="1.58" shape="471.76,1121.98 472.23,1120.47"/>
        <lane id=":10989299585_5_3" index="3" disallow="tram rail_urban rail rail_electric rail_fast ship container cable_car subway aircraft wheelchair scooter drone" speed="27.78" length="1.58" shape="474.81,1122.93 475.28,1121.43"/>
        <lane id=":10989299585_5_4" index="4" disallow="tram rail_urban rail rail_electric rail_fast ship container cable_car subway aircraft wheelchair scooter drone" speed="27.78" length="1.58" shape="477.87,1123.89 478.34,1122.38"/>
    </edge>
    <edge id=":10989299588_0" function="internal">
        <lane id=":10989299588_0_0" index="0" disallow="tram rail_urban rail rail_electric rail_fast ship container cable_car subway aircraft wheelchair scooter drone" speed="27.78" length="1.15" shape="479.33,1137.72 478.93,1137.60 478.66,1137.49 478.40,1137.37 478.00,1137.24"/>
        <lane id=":10989299588_0_1" index="1" disallow="tram rail_urban rail rail_electric rail_fast ship container cable_car subway aircraft wheelchair scooter drone" speed="27.78" length="1.15" shape="480.07,1134.60 479.71,1134.50 479.47,1134.39 479.23,1134.28 478.87,1134.16"/>
        <lane id=":10989299588_0_2" index="2" disallow="tram rail_urban rail rail_electric rail_fast ship container cable_car subway aircraft wheelchair scooter drone" speed="27.78" length="1.15" shape="480.82,1131.49 480.49,1131.39 480.28,1131.30 480.07,1131.19 479.74,1131.08"/>
        <lane id=":10989299588_0_3" index="3" disallow="tram rail_urban rail rail_electric rail_fast ship container cable_car subway aircraft wheelchair scooter drone" speed="27.78" length="1.15" shape="481.56,1128.38 481.27,1128.29 481.09,1128.20 480.90,1128.11 480.62,1128.01"/>
        <lane id=":10989299588_0_4" index="4" disallow="tram rail_urban rail rail_electric rail_fast ship container cable_car subway aircraft wheelchair scooter drone" speed="27.78" length="1.15" shape="482.31,1125.27 482.06,1125.19 481.90,1125.10 481.74,1125.02 481.49,1124.93"/>
    </edge>
    <edge id=":10989299588_5" function="internal">
        <lane id=":10989299588_5_0" index="0" allow="bus bicycle" speed="27.78" length="4.45" shape="482.31,1125.27 481.02,1124.98 480.13,1124.79 479.26,1124.55 478.01,1124.11"/>
    </edge>
    <edge id=":10989299588_6" function="internal">
        <lane id=":10989299588_6_0" index="0" allow="bus bicycle" speed="5.54" length="6.10" shape="480.70,1141.91 480.87,1140.25 480.48,1138.92 479.52,1137.92 478.00,1137.24"/>
        <lane id=":10989299588_6_1" index="1" allow="bus bicycle" speed="6.50" length="8.78" shape="480.70,1141.91 481.22,1138.89 481.08,1136.60 480.30,1135.02 478.87,1134.16"/>
    </edge>
    <edge id=":10989299588_8" function="internal">
        <lane id=":10989299588_8_0" index="0" allow="bus bicycle" speed="9.68" length="19.42" shape="480.70,1141.91 481.97,1135.03 481.94,1129.77 480.62,1126.13 478.01,1124.11"/>
    </edge>
    <edge id=":10989299589_0" function="internal">
        <lane id=":10989299589_0_0" index="0" allow="bus bicycle" speed="27.78" length="3.35" shape="479.92,1145.36 480.65,1142.10"/>
    </edge>
    <edge id=":10989307250_0" function="internal">
        <lane id=":10989307250_0_0" index="0" allow="bus bicycle" speed="3.65" length="4.30" shape="417.71,1406.37 416.71,1407.24 415.90,1407.40 415.29,1406.86 414.87,1405.60"/>
    </edge>
    <edge id=":10989307257_0" function="internal">
        <lane id=":10989307257_0_0" index="0" allow="bus bicycle" speed="27.78" length="3.87" shape="459.06,1113.45 462.57,1115.09"/>
    </edge>
    <edge id=":11821456163_0" function="internal">
        <lane id=":11821456163_0_0" index="0" disallow="tram rail_urban rail rail_electric rail_fast ship container cable_car subway aircraft wheelchair scooter drone" speed="13.89" length="13.95" shape="582.91,1173.23 581.35,1169.99 579.90,1166.91 578.28,1163.94 576.21,1161.03"/>
    </edge>
    <edge id=":11821456163_1" function="internal">
        <lane id=":11821456163_1_0" index="0" disallow="tram rail_urban rail rail_electric rail_fast ship container cable_car subway aircraft wheelchair scooter drone" speed="3.65" length="1.44" shape="582.91,1173.23 583.08,1171.80"/>
    </edge>
    <edge id=":11821456163_4" function="internal">
        <lane id=":11821456163_4_0" index="0" disallow="tram rail_urban rail rail_electric rail_fast ship container cable_car subway aircraft wheelchair scooter drone" speed="3.65" length="3.23" shape="583.08,1171.80 583.61,1171.08 584.50,1171.07 585.76,1171.77"/>
    </edge>
    <edge id=":11821456163_2" function="internal">
        <lane id=":11821456163_2_0" index="0" disallow="tram rail_urban rail rail_electric rail_fast ship container cable_car subway aircraft wheelchair scooter drone" speed="6.84" length="5.39" shape="585.80,1166.60 585.29,1167.89 585.11,1169.18 585.27,1170.47 585.76,1171.77"/>
    </edge>
    <edge id=":11821456163_3" function="internal">
        <lane id=":11821456163_3_0" index="0" disallow="tram rail_urban rail rail_electric rail_fast ship container cable_car subway aircraft wheelchair scooter drone" speed="6.69" length="4.76" shape="585.80,1166.60 584.46,1167.64 582.42,1167.06 581.68,1166.47"/>
    </edge>
    <edge id=":11821456163_5" function="internal">
        <lane id=":11821456163_5_0" index="0" disallow="tram rail_urban rail rail_electric rail_fast ship container cable_car subway aircraft wheelchair scooter drone" speed="6.69" length="7.74" shape="581.68,1166.47 579.67,1164.86 576.21,1161.03"/>
    </edge>
    <edge id=":11821456166_0" function="internal">
        <lane id=":11821456166_0_0" index="0" disallow="tram rail_urban rail rail_electric rail_fast ship container cable_car subway aircraft wheelchair scooter drone" speed="11.67" length="9.39" shape="569.38,1152.76 567.34,1152.08 565.72,1154.07 563.80,1156.65 560.88,1157.71"/>
        <lane id=":11821456166_0_1" index="1" disallow="tram rail_urban rail rail_electric rail_fast ship container cable_car subway aircraft wheelchair scooter drone" speed="10.62" length="9.39" shape="569.38,1152.76 567.50,1151.80 565.80,1152.66 563.85,1154.00 561.22,1154.53"/>
        <lane id=":11821456166_0_2" index="2" disallow="tram rail_urban rail rail_electric rail_fast ship container cable_car subway aircraft wheelchair scooter drone" speed="10.20" length="9.39" shape="569.38,1152.76 567.58,1151.36 565.94,1151.11 564.07,1151.33 561.56,1151.34"/>
        <lane id=":11821456166_0_3" index="3" disallow="tram rail_urban rail rail_electric rail_fast ship container cable_car subway aircraft wheelchair scooter drone" speed="10.65" length="9.39" shape="569.38,1152.76 567.57,1150.74 566.16,1149.42 564.49,1148.62 561.89,1148.16"/>
    </edge>
    <edge id=":11821456166_4" function="internal">
        <lane id=":11821456166_4_0" index="0" disallow="tram rail_urban rail rail_electric rail_fast ship container cable_car subway aircraft wheelchair scooter drone" speed="16.67" length="9.88" shape="571.20,1149.13 568.31,1149.33 566.38,1150.24 564.45,1151.15 561.56,1151.34"/>
        <lane id=":11821456166_4_1" index="1" disallow="tram rail_urban rail rail_electric rail_fast ship container cable_car subway aircraft wheelchair scooter drone" speed="16.67" length="9.88" shape="571.54,1145.95 568.65,1146.15 566.71,1147.06 564.78,1147.96 561.89,1148.16"/>
        <lane id=":11821456166_4_2" index="2" disallow="tram rail_urban rail rail_electric rail_fast ship container cable_car subway aircraft wheelchair scooter drone" speed="16.67" length="9.88" shape="571.87,1142.77 568.98,1142.97 567.05,1143.88 565.12,1144.78 562.23,1144.98"/>
        <lane id=":11821456166_4_3" index="3" disallow="tram rail_urban rail rail_electric rail_fast ship container cable_car subway aircraft wheelchair scooter drone" speed="16.67" length="9.88" shape="571.87,1142.77 562.57,1141.80"/>
    </edge>
    <edge id=":11821487978_0" function="internal">
        <lane id=":11821487978_0_0" index="0" disallow="tram rail_urban rail rail_electric rail_fast ship container cable_car subway aircraft wheelchair scooter drone" speed="3.65" length="4.67" shape="590.95,1181.92 590.79,1183.35 590.26,1184.07 589.36,1184.08 588.11,1183.38"/>
    </edge>
    <edge id=":11821487987_0" function="internal">
        <lane id=":11821487987_0_0" index="0" allow="pedestrian delivery bicycle" speed="5.71" length="5.80" shape="553.14,1202.07 551.35,1202.04 549.96,1202.41 548.96,1203.17 548.35,1204.33"/>
    </edge>
    <edge id=":11821487987_1" function="internal">
        <lane id=":11821487987_1_0" index="0" allow="pedestrian delivery bicycle" speed="6.74" length="11.10" shape="553.14,1202.07 550.12,1201.27 548.26,1199.71 547.57,1197.39 548.04,1194.30"/>
    </edge>
    <edge id=":11821487987_2" function="internal">
        <lane id=":11821487987_2_0" index="0" disallow="tram rail_urban rail rail_electric rail_fast ship container cable_car subway aircraft wheelchair scooter drone" speed="3.65" length="4.67" shape="553.14,1202.07 552.04,1201.14 551.73,1200.30 552.22,1199.55 553.51,1198.89"/>
    </edge>
    <edge id=":11821487987_3" function="internal">
        <lane id=":11821487987_3_0" index="0" allow="pedestrian delivery bicycle" speed="4.87" length="5.23" shape="551.10,1195.23 550.88,1196.68 551.21,1197.78 552.08,1198.52 553.51,1198.89"/>
    </edge>
    <edge id=":11821487987_4" function="internal">
        <lane id=":11821487987_4_0" index="0" allow="pedestrian delivery bicycle" speed="5.56" length="9.51" shape="551.10,1195.23 548.35,1204.33"/>
    </edge>
    <edge id=":11821487987_5" function="internal">
        <lane id=":11821487987_5_0" index="0" allow="pedestrian delivery bicycle" speed="3.65" length="4.67" shape="551.10,1195.23 549.99,1196.14 549.11,1196.29 548.46,1195.68 548.04,1194.30"/>
    </edge>
    <edge id=":11821487987_6" function="internal">
        <lane id=":11821487987_6_0" index="0" allow="pedestrian delivery bicycle" speed="5.56" length="9.52" shape="545.29,1203.41 548.04,1194.30"/>
    </edge>
    <edge id=":11821487987_7" function="internal">
        <lane id=":11821487987_7_0" index="0" allow="pedestrian delivery bicycle" speed="7.38" length="10.31" shape="545.29,1203.41 546.39,1201.15 548.13,1199.64 550.50,1198.89 553.51,1198.89"/>
    </edge>
    <edge id=":11821487987_8" function="internal">
        <lane id=":11821487987_8_0" index="0" allow="pedestrian delivery bicycle" speed="3.65" length="4.67" shape="545.29,1203.41 546.40,1202.49 547.28,1202.34 547.93,1202.95 548.35,1204.33"/>
    </edge>
    <edge id=":11821487992_0" function="internal">
        <lane id=":11821487992_0_0" index="0" allow="pedestrian delivery bicycle" speed="4.81" length="5.33" shape="488.06,1261.28 486.62,1260.78 485.48,1260.91 484.64,1261.69 484.09,1263.11"/>
    </edge>
    <edge id=":11821487992_1" function="internal">
        <lane id=":11821487992_1_0" index="0" allow="pedestrian delivery bicycle" speed="5.56" length="10.42" shape="488.06,1261.28 485.46,1259.57 483.78,1257.63 483.00,1255.45 483.14,1253.02"/>
    </edge>
    <edge id=":11821487992_2" function="internal">
        <lane id=":11821487992_2_0" index="0" allow="pedestrian delivery bicycle" speed="3.65" length="4.67" shape="488.06,1261.28 487.36,1260.02 487.38,1259.12 488.10,1258.60 489.54,1258.44"/>
    </edge>
    <edge id=":11821487992_3" function="internal">
        <lane id=":11821487992_3_0" index="0" allow="pedestrian delivery bicycle" speed="5.56" length="6.18" shape="486.26,1253.75 486.23,1255.04 486.77,1256.25 487.87,1257.39 489.54,1258.44"/>
    </edge>
    <edge id=":11821487992_4" function="internal">
        <lane id=":11821487992_4_0" index="0" allow="pedestrian delivery bicycle" speed="5.56" length="9.61" shape="486.26,1253.75 484.09,1263.11"/>
    </edge>
    <edge id=":11821487992_5" function="internal">
        <lane id=":11821487992_5_0" index="0" allow="pedestrian delivery bicycle" speed="3.65" length="4.67" shape="486.26,1253.75 485.21,1254.73 484.34,1254.94 483.65,1254.37 483.14,1253.02"/>
    </edge>
    <edge id=":11821487992_6" function="internal">
        <lane id=":11821487992_6_0" index="0" allow="pedestrian delivery bicycle" speed="5.56" length="9.61" shape="480.97,1262.39 483.14,1253.02"/>
    </edge>
    <edge id=":11821487992_7" function="internal">
        <lane id=":11821487992_7_0" index="0" allow="pedestrian delivery bicycle" speed="5.56" length="11.52" shape="480.97,1262.39 482.16,1259.33 483.98,1257.65 486.44,1257.36 489.54,1258.44"/>
    </edge>
    <edge id=":11821487992_8" function="internal">
        <lane id=":11821487992_8_0" index="0" allow="pedestrian delivery bicycle" speed="3.65" length="4.67" shape="480.97,1262.39 482.02,1261.40 482.89,1261.19 483.58,1261.76 484.09,1263.11"/>
    </edge>
    <edge id=":11821487997_0" function="internal">
        <lane id=":11821487997_0_0" index="0" allow="pedestrian delivery bicycle" speed="5.56" length="9.54" shape="526.08,1272.72 525.18,1275.40 524.68,1277.28 524.28,1279.18 523.68,1281.95"/>
    </edge>
    <edge id=":11821487997_1" function="internal">
        <lane id=":11821487997_1_0" index="0" allow="pedestrian delivery bicycle" speed="5.56" length="11.18" shape="526.08,1272.72 524.59,1275.61 522.64,1277.21 520.25,1277.53 517.41,1276.58"/>
    </edge>
    <edge id=":11821487997_2" function="internal">
        <lane id=":11821487997_2_0" index="0" allow="pedestrian delivery bicycle" speed="3.66" length="4.70" shape="526.08,1272.72 525.01,1273.70 524.14,1273.90 523.45,1273.32 522.96,1271.96"/>
    </edge>
    <edge id=":11821487997_3" function="internal">
        <lane id=":11821487997_3_0" index="0" allow="pedestrian delivery bicycle" speed="4.93" length="5.23" shape="518.89,1273.74 520.22,1274.19 521.35,1274.04 522.26,1273.30 522.96,1271.96"/>
    </edge>
    <edge id=":11821487997_4" function="internal">
        <lane id=":11821487997_4_0" index="0" allow="pedestrian delivery bicycle" speed="5.56" length="10.31" shape="518.89,1273.74 521.43,1275.42 523.08,1277.35 523.83,1279.52 523.68,1281.95"/>
    </edge>
    <edge id=":11821487997_5" function="internal">
        <lane id=":11821487997_5_0" index="0" allow="pedestrian delivery bicycle" speed="3.65" length="4.67" shape="518.89,1273.74 519.58,1275.00 519.57,1275.90 518.84,1276.42 517.41,1276.58"/>
    </edge>
    <edge id=":11821487997_6" function="internal">
        <lane id=":11821487997_6_0" index="0" allow="pedestrian delivery bicycle" speed="5.56" length="6.06" shape="520.56,1281.22 520.60,1279.92 520.09,1278.72 519.02,1277.60 517.41,1276.58"/>
    </edge>
    <edge id=":11821487997_7" function="internal">
        <lane id=":11821487997_7_0" index="0" allow="pedestrian delivery bicycle" speed="5.56" length="9.57" shape="520.56,1281.22 521.17,1278.44 521.56,1276.53 522.05,1274.65 522.96,1271.96"/>
    </edge>
    <edge id=":11821487997_8" function="internal">
        <lane id=":11821487997_8_0" index="0" allow="pedestrian delivery bicycle" speed="3.65" length="4.67" shape="520.56,1281.22 521.61,1280.23 522.48,1280.02 523.17,1280.60 523.68,1281.95"/>
    </edge>
    <edge id=":11821488000_0" function="internal">
        <lane id=":11821488000_0_0" index="0" allow="pedestrian delivery bicycle" speed="3.65" length="4.67" shape="550.68,1185.63 551.79,1184.72 552.68,1184.57 553.32,1185.18 553.74,1186.57"/>
    </edge>
    <edge id=":11821488012_0" function="internal">
        <lane id=":11821488012_0_0" index="0" allow="pedestrian delivery bicycle" speed="3.65" length="4.67" shape="512.33,1457.35 512.00,1458.75 511.39,1459.41 510.50,1459.31 509.33,1458.47"/>
    </edge>
    <edge id=":11821488036_0" function="internal">
        <lane id=":11821488036_0_0" index="0" allow="pedestrian delivery bicycle" speed="5.01" length="5.04" shape="666.27,1154.92 664.89,1155.06 663.90,1155.60 663.30,1156.56 663.09,1157.93"/>
    </edge>
    <edge id=":11821488036_1" function="internal">
        <lane id=":11821488036_1_0" index="0" disallow="tram rail_urban rail rail_electric rail_fast ship container cable_car subway aircraft wheelchair scooter drone" speed="16.67" length="9.16" shape="666.27,1154.92 656.97,1154.34"/>
        <lane id=":11821488036_1_1" index="1" disallow="tram rail_urban rail rail_electric rail_fast ship container cable_car subway aircraft wheelchair scooter drone" speed="16.67" length="9.16" shape="666.41,1151.72 657.28,1151.14"/>
        <lane id=":11821488036_1_2" index="2" disallow="tram rail_urban rail rail_electric rail_fast ship container cable_car subway aircraft wheelchair scooter drone" speed="16.67" length="9.16" shape="666.55,1148.52 657.58,1147.94"/>
    </edge>
    <edge id=":11821488036_4" function="internal">
        <lane id=":11821488036_4_0" index="0" allow="pedestrian delivery bicycle" speed="5.12" length="5.25" shape="659.89,1157.90 659.72,1156.34 659.18,1155.22 658.26,1154.56 656.97,1154.34"/>
    </edge>
    <edge id=":11821488036_5" function="internal">
        <lane id=":11821488036_5_0" index="0" allow="pedestrian delivery bicycle" speed="3.65" length="4.67" shape="659.89,1157.90 660.70,1156.71 661.51,1156.32 662.30,1156.73 663.09,1157.93"/>
    </edge>
    <edge id=":12144081603_0" function="internal">
        <lane id=":12144081603_0_0" index="0" disallow="tram rail_urban rail rail_electric rail_fast ship container cable_car subway aircraft wheelchair scooter drone" speed="3.65" length="4.67" shape="91.28,501.00 92.70,500.75 93.55,501.05 93.81,501.91 93.50,503.32"/>
    </edge>
    <edge id=":12144081612_0" function="internal">
        <lane id=":12144081612_0_0" index="0" disallow="tram rail_urban rail rail_electric rail_fast ship container cable_car subway aircraft wheelchair scooter drone" speed="13.89" length="11.86" shape="101.10,534.84 99.64,531.91 98.48,529.50 97.17,527.18 95.27,524.54"/>
    </edge>
    <edge id=":12144081612_1" function="internal">
        <lane id=":12144081612_1_0" index="0" disallow="tram rail_urban rail rail_electric rail_fast ship container cable_car subway aircraft wheelchair scooter drone" speed="7.52" length="16.16" shape="101.10,534.84 100.02,531.17 101.11,528.38 104.38,526.47 109.84,525.43"/>
    </edge>
    <edge id=":12144081612_2" function="internal">
        <lane id=":12144081612_2_0" index="0" disallow="tram rail_urban rail rail_electric rail_fast ship container cable_car subway aircraft wheelchair scooter drone" speed="3.73" length="4.98" shape="101.10,534.84 101.78,533.45 102.56,532.92 103.47,533.23 104.48,534.38"/>
    </edge>
    <edge id=":12144081612_3" function="internal">
        <lane id=":12144081612_3_0" index="0" disallow="tram rail_urban rail rail_electric rail_fast ship container cable_car subway aircraft wheelchair scooter drone" speed="5.83" length="9.18" shape="108.95,528.73 106.00,529.32 104.27,530.46 103.77,532.15 104.48,534.38"/>
    </edge>
    <edge id=":12144081612_4" function="internal">
        <lane id=":12144081612_4_0" index="0" disallow="tram rail_urban rail rail_electric rail_fast ship container cable_car subway aircraft wheelchair scooter drone" speed="10.82" length="14.89" shape="108.95,528.73 104.48,528.79 100.71,528.12 97.64,526.70 95.27,524.54"/>
    </edge>
    <edge id=":12144081612_5" function="internal">
        <lane id=":12144081612_5_0" index="0" disallow="tram rail_urban rail rail_electric rail_fast ship container cable_car subway aircraft wheelchair scooter drone" speed="3.73" length="1.41" shape="108.95,528.73 108.02,527.67"/>
    </edge>
    <edge id=":12144081612_9" function="internal">
        <lane id=":12144081612_9_0" index="0" disallow="tram rail_urban rail rail_electric rail_fast ship container cable_car subway aircraft wheelchair scooter drone" speed="3.73" length="3.57" shape="108.02,527.67 107.94,527.57 107.75,526.64 108.38,525.92 109.84,525.43"/>
    </edge>
    <edge id=":12144081612_6" function="internal">
        <lane id=":12144081612_6_0" index="0" disallow="tram rail_urban rail rail_electric rail_fast ship container cable_car subway aircraft wheelchair scooter drone" speed="10.49" length="13.95" shape="97.00,521.58 99.20,523.57 102.08,524.88 105.62,525.50 109.84,525.43"/>
    </edge>
    <edge id=":12144081612_7" function="internal">
        <lane id=":12144081612_7_0" index="0" disallow="tram rail_urban rail rail_electric rail_fast ship container cable_car subway aircraft wheelchair scooter drone" speed="13.89" length="3.99" shape="97.00,521.58 99.15,524.61 99.29,524.84"/>
    </edge>
    <edge id=":12144081612_8" function="internal">
        <lane id=":12144081612_8_0" index="0" disallow="tram rail_urban rail rail_electric rail_fast ship container cable_car subway aircraft wheelchair scooter drone" speed="3.74" length="1.81" shape="97.00,521.58 97.68,522.97 97.66,523.23"/>
    </edge>
    <edge id=":12144081612_10" function="internal">
        <lane id=":12144081612_10_0" index="0" disallow="tram rail_urban rail rail_electric rail_fast ship container cable_car subway aircraft wheelchair scooter drone" speed="13.89" length="10.87" shape="99.29,524.84 101.03,527.79 102.76,531.06 104.48,534.38"/>
    </edge>
    <edge id=":12144081612_11" function="internal">
        <lane id=":12144081612_11_0" index="0" disallow="tram rail_urban rail rail_electric rail_fast ship container cable_car subway aircraft wheelchair scooter drone" speed="3.74" length="3.20" shape="97.66,523.23 97.61,523.92 96.81,524.45 95.27,524.54"/>
    </edge>
    <edge id=":12284480361_0" function="internal">
        <lane id=":12284480361_0_0" index="0" disallow="tram rail_urban rail rail_electric rail_fast ship container cable_car subway aircraft wheelchair scooter drone" speed="13.89" length="14.40" shape="707.88,395.80 701.48,408.71"/>
    </edge>
    <edge id=":12284480361_1" function="internal">
        <lane id=":12284480361_1_0" index="0" disallow="tram rail_urban rail rail_electric rail_fast ship container cable_car subway aircraft wheelchair scooter drone" speed="7.94" length="4.09" shape="707.88,395.80 705.64,399.05 705.51,399.13"/>
    </edge>
    <edge id=":12284480361_2" function="internal">
        <lane id=":12284480361_2_0" index="0" disallow="tram rail_urban rail rail_electric rail_fast ship container cable_car subway aircraft wheelchair scooter drone" speed="3.65" length="1.44" shape="707.88,395.80 706.63,396.52"/>
    </edge>
    <edge id=":12284480361_9" function="internal">
        <lane id=":12284480361_9_0" index="0" disallow="tram rail_urban rail rail_electric rail_fast ship container cable_car subway aircraft wheelchair scooter drone" speed="7.94" length="10.22" shape="705.51,399.13 702.92,400.77 699.71,400.95 696.01,399.60"/>
    </edge>
    <edge id=":12284480361_10" function="internal">
        <lane id=":12284480361_10_0" index="0" disallow="tram rail_urban rail rail_electric rail_fast ship container cable_car subway aircraft wheelchair scooter drone" speed="3.65" length="3.23" shape="706.63,396.52 705.73,396.53 705.19,395.81 705.01,394.38"/>
    </edge>
    <edge id=":12284480361_3" function="internal">
        <lane id=":12284480361_3_0" index="0" disallow="tram rail_urban rail rail_electric rail_fast ship container cable_car subway aircraft wheelchair scooter drone" speed="6.44" length="9.03" shape="697.52,396.78 699.85,397.63 701.88,397.51 703.60,396.43 705.01,394.38"/>
    </edge>
    <edge id=":12284480361_4" function="internal">
        <lane id=":12284480361_4_0" index="0" disallow="tram rail_urban rail rail_electric rail_fast ship container cable_car subway aircraft wheelchair scooter drone" speed="8.11" length="14.24" shape="697.52,396.78 700.69,399.09 702.41,401.85 702.67,405.06 701.48,408.71"/>
    </edge>
    <edge id=":12284480361_5" function="internal">
        <lane id=":12284480361_5_0" index="0" disallow="tram rail_urban rail rail_electric rail_fast ship container cable_car subway aircraft wheelchair scooter drone" speed="3.65" length="4.67" shape="697.52,396.78 698.20,398.05 698.17,398.94 697.44,399.46 696.01,399.60"/>
    </edge>
    <edge id=":12284480361_6" function="internal">