<?xml version="1.0" encoding="UTF-8"?>
<routes xmlns:xsi="http://www.w3.org/2001/XMLSchema-instance" xsi:noNamespaceSchemaLocation="http://sumo.dlr.de/xsd/routes_file.xsd">
    <vType id="passenger" accel="2.2" decel="4.5" sigma="0.5" length="5.0" minGap="2.5" maxSpeed="18.0" guiShape="passenger"/>
    <vType id="bus" accel="1.5" decel="4.0" sigma="0.5" length="12.0" minGap="3.0" maxSpeed="14.0" guiShape="bus"/>
    <vType id="truck" accel="1.4" decel="4.0" sigma="0.5" length="8.0" minGap="3.0" maxSpeed="15.0" guiShape="truck"/>
    <vType id="motorcycle" accel="2.8" decel="4.8" sigma="0.4" length="2.2" minGap="1.4" maxSpeed="18.0" guiShape="motorcycle"/>
</routes>